<?xml version="1.0" encoding="UTF-8"?>

<!-- generated on 2025-08-20 02:28:52 by Eclipse SUMO netconvert Version c915cd253
<netconvertConfiguration xmlns:xsi="http://www.w3.org/2001/XMLSchema-instance" xsi:noNamespaceSchemaLocation="http://sumo.dlr.de/xsd/netconvertConfiguration.xsd">

    <input>
        <type-files value="/home/dahou/sumo/data/typemap/osmNetconvert.typ.xml,/home/dahou/sumo/data/typemap/osmNetconvertBicycle.typ.xml,/home/dahou/sumo/data/typemap/osmNetconvertPedestrians.typ.xml"/>
        <osm-files value="H2ST8.osm"/>
    </input>

    <output>
        <output-file value="osm.net.xml"/>
        <output.street-names value="true"/>
        <output.original-names value="true"/>
        <ptstop-output value="osm_stops.add.xml"/>
        <ptline-output value="osm_ptlines.xml"/>
        <parking-output value="osm_parking.xml"/>
    </output>

    <projection>
        <proj.utm value="true"/>
    </projection>

    <processing>
        <geometry.remove value="true"/>
        <roundabouts.guess value="true"/>
    </processing>

    <tls_building>
        <tls.discard-simple value="true"/>
        <tls.join value="true"/>
        <tls.guess-signals value="true"/>
        <tls.default-type value="actuated"/>
    </tls_building>

    <ramp_guessing>
        <ramps.guess value="true"/>
    </ramp_guessing>

    <edge_removal>
        <keep-edges.components value="1"/>
        <remove-edges.isolated value="true"/>
    </edge_removal>

    <junctions>
        <no-internal-links value="false"/>
        <no-turnarounds value="false"/>
        <no-turnarounds.tls value="false"/>
        <no-turnarounds.geometry value="true"/>
        <no-turnarounds.except-deadend value="true"/>
        <no-turnarounds.except-turnlane value="false"/>
        <no-turnarounds.fringe value="true"/>
        <junctions.join value="true"/>
        <junctions.join-dist value="10"/>
        <junctions.join-same value="true"/>
        <junctions.corner-detail value="5"/>
        <junctions.internal-link-detail value="5"/>
        <check-lane-foes.roundabout value="true"/>
    </junctions>

    <pedestrian>
        <sidewalks.guess value="false"/>
        <sidewalks.guess.max-speed value="13.89"/>
        <sidewalks.guess.min-speed value="5.8"/>
        <sidewalks.guess.from-permissions value="false"/>
        <crossings.guess value="true"/>
        <crossings.guess.speed-threshold value="13.89"/>
        <walkingareas value="false"/>
        <walkingareas.join-dist value="15"/>
    </pedestrian>

    <bicycle>
        <bikelanes.guess value="false"/>
        <bikelanes.guess.max-speed value="22.22"/>
        <bikelanes.guess.min-speed value="5.8"/>
        <bikelanes.guess.from-permissions value="false"/>
    </bicycle>

    <railway>
        <railway.signals.discard value="false"/>
        <railway.topology.repair value="true"/>
        <railway.topology.repair.connect-straight value="true"/>
        <railway.topology.repair.stop-turn value="true"/>
        <railway.topology.all-bidi value="false"/>
        <railway.topology.direction-priority value="false"/>
        <railway.access-distance value="150"/>
        <railway.max-accesses value="5"/>
        <railway.access-factor value="1.5"/>
    </railway>

    <formats>
        <osm.skip-duplicates-check value="false"/>
        <osm.elevation value="true"/>
        <osm.stop-output.length value="25"/>
        <osm.stop-output.length.bus value="15"/>
        <osm.stop-output.length.tram value="25"/>
        <osm.stop-output.length.train value="200"/>
        <osm.all-attributes value="false"/>
    </formats>

    <report>
        <verbose value="true"/>
    </report>

</netconvertConfiguration>
-->

<additional xmlns:xsi="http://www.w3.org/2001/XMLSchema-instance" xsi:noNamespaceSchemaLocation="http://sumo.dlr.de/xsd/additional_file.xsd">
    <busStop id="-226687" name="Moulouya" lane="-62697#3_0" startPos="101.78" endPos="116.78" friendlyPos="true">
        <access lane="--60100#6_0" pos="0.00" length="16.94" friendlyPos="1"/>
        <access lane="-60100#6_0" pos="38.33" length="21.33" friendlyPos="1"/>
        <access lane="-60562#2_0" pos="35.71" length="13.16" friendlyPos="1"/>
        <access lane="-60562#3_0" pos="0.00" length="19.55" friendlyPos="1"/>
        <access lane="-61972_0" pos="107.45" length="28.20" friendlyPos="1"/>
    </busStop>
    <busStop id="-226761" name="Carr. Schneider" lane="-62342#3_1" startPos="111.13" endPos="126.13" friendlyPos="true"/>
    <busStop id="-226902" name="École Elibrahimi" lane="-63752#2_1" startPos="165.81" endPos="180.81" friendlyPos="true"/>
    <busStop id="-227007" name="Caf" lane="-61029#3_1" startPos="0.00" endPos="15.00" friendlyPos="true"/>
    <busStop id="-227070" name="Hay Hassani" lane="-62632#54_0" startPos="0.00" endPos="0.28" friendlyPos="true" lines="T2">
        <access lane="--63988_0" pos="0.00" length="25.71" friendlyPos="1"/>
        <access lane="-60688#4_0" pos="65.41" length="16.01" friendlyPos="1"/>
        <access lane="-61083#1_0" pos="20.77" length="25.60" friendlyPos="1"/>
        <access lane="-61083#2_0" pos="0.00" length="26.55" friendlyPos="1"/>
        <access lane="-63988_0" pos="20.90" length="28.23" friendlyPos="1"/>
    </busStop>
    <busStop id="-227635" name="Café Kairaouan" lane="--63267#13_1" startPos="0.00" endPos="15.00" friendlyPos="true" lines="L143"/>
    <busStop id="-228079" name="Carr. Schneider" lane="-62142#8_1" startPos="46.09" endPos="61.09" friendlyPos="true"/>
    <busStop id="-228274" name="Facultés - Route d&apos;El Jadida" lane="-60129#2_1" startPos="187.50" endPos="202.50" friendlyPos="true"/>
    <busStop id="-228314" name="Tribunal" lane="-61043#3_1" startPos="3.66" endPos="18.66" friendlyPos="true"/>
    <busStop id="-228421" name="Cité Police Ibn Sina" lane="-63267#5_1" startPos="28.82" endPos="43.82" friendlyPos="true"/>
    <busStop id="-228421@-844" name="Cité Police Ibn Sina" lane="--63267#5_1" startPos="10.38" endPos="25.38" friendlyPos="true" lines="L143"/>
    <busStop id="-228825" name="Angle Oum Rabia/Naciri" lane="-61114#1_1" startPos="157.92" endPos="172.92" friendlyPos="true"/>
    <busStop id="-229078" name="C.A. Tensift" lane="--59891#10_1" startPos="14.40" endPos="29.40" friendlyPos="true" lines="L68 L143"/>
    <busStop id="-229200" name="Facultés" lane="-61613#2_0" startPos="93.98" endPos="118.98" friendlyPos="true" lines="T1">
        <access lane="--62143_0" pos="62.67" length="56.59" friendlyPos="1"/>
        <access lane="--62873#1_0" pos="0.00" length="54.48" friendlyPos="1"/>
        <access lane="-60158#1_0" pos="85.32" length="16.11" friendlyPos="1"/>
        <access lane="-62143_0" pos="22.35" length="51.79" friendlyPos="1"/>
        <access lane="-63429#4_0" pos="131.15" length="14.66" friendlyPos="1"/>
    </busStop>
    <busStop id="-229531" name="École Al Ajial" lane="-60718#1_1" startPos="138.97" endPos="153.97" friendlyPos="true"/>
    <busStop id="-229575" name="École Elibrahimi" lane="-60058#1_1" startPos="54.21" endPos="69.21" friendlyPos="true"/>
    <busStop id="-229615" name="Cité de l&apos;Air" lane="-63260#18_0" startPos="25.45" endPos="50.45" friendlyPos="true" lines="T2">
        <access lane="-60863#11_0" pos="0.00" length="63.48" friendlyPos="1"/>
        <access lane="-60863#2_0" pos="122.04" length="61.72" friendlyPos="1"/>
        <access lane="-60863#3_0" pos="2.57" length="60.65" friendlyPos="1"/>
        <access lane="-63529#1_0" pos="0.20" length="62.23" friendlyPos="1"/>
        <access lane="-63951#5_0" pos="3.01" length="62.66" friendlyPos="1"/>
    </busStop>
    <busStop id="-230050" name="Sidi Al Khadir" lane="-62281#0_1" startPos="0.00" endPos="15.00" friendlyPos="true"/>
    <busStop id="-230390" name="Laymoune" lane="-60395#0_0" startPos="77.14" endPos="102.14" friendlyPos="true" lines="T1">
        <access lane="--60056#0_0" pos="45.30" length="25.93" friendlyPos="1"/>
        <access lane="-59804#3_0" pos="50.72" length="26.13" friendlyPos="1"/>
        <access lane="-60056#0_0" pos="0.00" length="21.44" friendlyPos="1"/>
        <access lane="-61818_0" pos="0.00" length="25.02" friendlyPos="1"/>
        <access lane="-62746_0" pos="66.05" length="27.63" friendlyPos="1"/>
    </busStop>
    <busStop id="-230502" name="Terminus Mosquée Ferrara" lane="-61672_1" startPos="21.14" endPos="36.14" friendlyPos="true"/>
    <busStop id="-230516" name="Dar Lhamra" lane="-63194#2_1" startPos="0.00" endPos="15.00" friendlyPos="true"/>
    <busStop id="-230516@-844" name="Dar Lhamra" lane="--63194#2_1" startPos="64.27" endPos="79.27" friendlyPos="true" lines="L143"/>
    <busStop id="-230932" name="Mosquée El Fath" lane="-63599#1_1" startPos="7.57" endPos="22.57" friendlyPos="true"/>
    <busStop id="-230995" name="Café Bouchiki" lane="--62236#10_1" startPos="0.00" endPos="4.11" friendlyPos="true" lines="L19 L63"/>
    <busStop id="-231273" name="Abdellah Ben Cherif" lane="-62632#30_0" startPos="50.54" endPos="75.54" friendlyPos="true" lines="T2">
        <access lane="--63678#0_0" pos="101.59" length="17.63" friendlyPos="1"/>
        <access lane="-63561#0_0" pos="0.00" length="107.86" friendlyPos="1"/>
        <access lane="-63590#7_0" pos="15.08" length="91.39" friendlyPos="1"/>
        <access lane="-63590#8_0" pos="0.00" length="91.24" friendlyPos="1"/>
        <access lane="-63678#0_0" pos="62.04" length="5.03" friendlyPos="1"/>
    </busStop>
    <busStop id="-231537" name="Marjane Hay Hassani" lane="--63267#5_1" startPos="11.84" endPos="26.84" friendlyPos="true" lines="L50 L143"/>
    <busStop id="-231606" name="Mosquée El Fath" lane="--63599#1_1" startPos="26.59" endPos="41.59" friendlyPos="true" lines="L109"/>
    <busStop id="-231606@-850" name="Mosquée El Fath" lane="-63599#1_1" startPos="0.00" endPos="15.00" friendlyPos="true"/>
    <busStop id="-232042" name="Lycée Fechtali" lane="-60390#3_1" startPos="22.07" endPos="37.07" friendlyPos="true"/>
    <busStop id="-232042@-844" name="Lycée Fechtali" lane="--60862#0_1" startPos="35.87" endPos="50.87" friendlyPos="true" lines="L143"/>
    <busStop id="-232052" name="Place Financière" lane="-62632#22_0" startPos="27.68" endPos="52.68" friendlyPos="true" lines="T2">
        <access lane="-60244#2_0" pos="72.15" length="36.45" friendlyPos="1"/>
        <access lane="-60743#2_0" pos="22.34" length="37.11" friendlyPos="1"/>
        <access lane="-61381#5_0" pos="78.93" length="23.85" friendlyPos="1"/>
        <access lane="-62130#20_0" pos="40.14" length="26.34" friendlyPos="1"/>
        <access lane="-63940#3_0" pos="72.16" length="33.20" friendlyPos="1"/>
    </busStop>
    <busStop id="-233071" name="Oued Laou" lane="-62319#21_0" startPos="25.07" endPos="40.07" friendlyPos="true">
        <access lane="--63520#1_0" pos="0.00" length="20.45" friendlyPos="1"/>
        <access lane="-60336#2_0" pos="19.15" length="17.35" friendlyPos="1"/>
        <access lane="-60336#3_0" pos="0.00" length="18.81" friendlyPos="1"/>
        <access lane="-62790#2_0" pos="9.34" length="24.16" friendlyPos="1"/>
        <access lane="-63520#1_0" pos="12.69" length="20.99" friendlyPos="1"/>
    </busStop>
    <busStop id="-233204" name="Etablissement Moussaoui" lane="--60848#0_1" startPos="2.66" endPos="17.66" friendlyPos="true" lines="L68"/>
    <busStop id="-233624" name="Groupe Scolaire Al Amjad" lane="--62783#1_1" startPos="25.35" endPos="40.35" friendlyPos="true" lines="L68"/>
    <busStop id="-233832" name="Beauséjour" lane="-63260#53_0" startPos="64.74" endPos="89.74" friendlyPos="true" lines="T2">
        <access lane="--59809_0" pos="37.23" length="20.65" friendlyPos="1"/>
        <access lane="-59809_0" pos="0.00" length="26.38" friendlyPos="1"/>
        <access lane="-62206#10_0" pos="0.84" length="15.14" friendlyPos="1"/>
        <access lane="-62206#9_0" pos="63.20" length="26.06" friendlyPos="1"/>
        <access lane="-63478#1_0" pos="42.29" length="26.21" friendlyPos="1"/>
    </busStop>
    <busStop id="-233970" name="Oulfa" lane="-59979#3_1" startPos="45.51" endPos="60.51" friendlyPos="true"/>
    <busStop id="-233970@-850" name="Oulfa" lane="--60265#0_1" startPos="0.00" endPos="2.73" friendlyPos="true" lines="L68"/>
    <busStop id="-234459" name="Souk Ould Mina" lane="-63194#12_1" startPos="134.75" endPos="149.75" friendlyPos="true"/>
    <busStop id="-234459@-844" name="Souk Ould Mina" lane="--63194#12_1" startPos="0.00" endPos="15.00" friendlyPos="true" lines="L143"/>
    <busStop id="-235092" name="Polyclinique CNSS Rabia" lane="-62342#6_1" startPos="227.19" endPos="242.19" friendlyPos="true"/>
    <busStop id="-235247" name="Hay Hassani T2" lane="--61527#3_1" startPos="10.89" endPos="25.89" friendlyPos="true" lines="L301"/>
    <busStop id="-235279" name="Stade Hay Hassani" lane="--62236#10_1" startPos="0.00" endPos="4.11" friendlyPos="true" lines="72"/>
    <busStop id="-235297" name="Les Musees" lane="-62319#6_0" startPos="50.14" endPos="65.14" friendlyPos="true">
        <access lane="-61192#1_0" pos="60.88" length="65.66" friendlyPos="1"/>
        <access lane="-61192#2_0" pos="32.15" length="32.04" friendlyPos="1"/>
        <access lane="-61590#0_0" pos="0.00" length="66.47" friendlyPos="1"/>
        <access lane="-61860#8_0" pos="166.61" length="29.24" friendlyPos="1"/>
        <access lane="-63590#8_0" pos="57.65" length="15.68" friendlyPos="1"/>
    </busStop>
    <busStop id="-235411" name="Oued Oum Rabia" lane="-62697#19_0" startPos="0.00" endPos="15.00" friendlyPos="true">
        <access lane="-61860#1_0" pos="3.24" length="13.53" friendlyPos="1"/>
        <access lane="-63424#8_0" pos="55.68" length="15.73" friendlyPos="1"/>
        <access lane="-63424#9_0" pos="4.36" length="11.21" friendlyPos="1"/>
        <access lane="-63626#2_0" pos="0.20" length="12.65" friendlyPos="1"/>
        <access lane="-63626#3_0" pos="0.20" length="9.36" friendlyPos="1"/>
    </busStop>
    <busStop id="-235422" name="Lycée Fechtali" lane="-62326#1_1" startPos="0.00" endPos="8.02" friendlyPos="true"/>
    <busStop id="-235621" name="Pharmacie Tam" lane="-63363#12_1" startPos="15.24" endPos="30.24" friendlyPos="true"/>
    <busStop id="-235704" name="Les Musees" lane="-62697#25_0" startPos="217.50" endPos="232.50" friendlyPos="true">
        <access lane="-60244#0_0" pos="19.90" length="61.38" friendlyPos="1"/>
        <access lane="-61192#2_0" pos="37.42" length="15.16" friendlyPos="1"/>
        <access lane="-61590#0_0" pos="0.00" length="66.54" friendlyPos="1"/>
        <access lane="-61860#8_0" pos="171.62" length="12.18" friendlyPos="1"/>
        <access lane="-63590#8_0" pos="52.55" length="32.68" friendlyPos="1"/>
    </busStop>
    <busStop id="-235846" name="Résidence Abwab Rabia" lane="-60336#10_1" startPos="2.20" endPos="17.20" friendlyPos="true"/>
    <busStop id="-236170" name="Terminus Hay Salam" lane="-62714#0_1" startPos="0.00" endPos="15.00" friendlyPos="true"/>
    <busStop id="-236508" name="Sidi Abderrahmane" lane="-63260#8_0" startPos="39.91" endPos="64.91" friendlyPos="true" lines="T2">
        <access lane="-60779#2_0" pos="27.73" length="26.36" friendlyPos="1"/>
        <access lane="-62536_0" pos="76.43" length="46.08" friendlyPos="1"/>
        <access lane="-62665#1_0" pos="0.20" length="46.14" friendlyPos="1"/>
        <access lane="-62665#2_0" pos="0.00" length="46.02" friendlyPos="1"/>
        <access lane="-63556#5_0" pos="25.24" length="15.27" friendlyPos="1"/>
    </busStop>
    <busStop id="-236567" name="Laymoune" lane="-61613#10_0" startPos="297.22" endPos="322.22" friendlyPos="true" lines="T1">
        <access lane="--59804#3_0" pos="0.00" length="23.64" friendlyPos="1"/>
        <access lane="-59804#3_0" pos="50.72" length="19.16" friendlyPos="1"/>
        <access lane="-60056#0_0" pos="0.00" length="28.41" friendlyPos="1"/>
        <access lane="-61818_0" pos="0.00" length="30.43" friendlyPos="1"/>
        <access lane="-62746_0" pos="66.05" length="22.53" friendlyPos="1"/>
    </busStop>
    <busStop id="-236631" name="Anfa Park" lane="-63260#35_0" startPos="185.21" endPos="210.21" friendlyPos="true" lines="T2">
        <access lane="-60542#4_0" pos="52.63" length="44.68" friendlyPos="1"/>
        <access lane="-60695#16_0" pos="52.80" length="39.39" friendlyPos="1"/>
        <access lane="-60699#2_0" pos="20.56" length="12.67" friendlyPos="1"/>
        <access lane="-61170#0_0" pos="21.95" length="7.82" friendlyPos="1"/>
        <access lane="-62964#0_0" pos="76.42" length="20.42" friendlyPos="1"/>
    </busStop>
    <busStop id="-236746" name="Oulfa" lane="-63300#0_1" startPos="0.00" endPos="15.00" friendlyPos="true"/>
    <busStop id="-236798" name="Caf" lane="-60061#5_1" startPos="233.32" endPos="248.32" friendlyPos="true"/>
    <busStop id="-236867" name="Terminus Mosquée Ferrara" lane="-60854_1" startPos="112.58" endPos="127.58" friendlyPos="true"/>
    <busStop id="-237070" name="Hay Salam" lane="-60208#0_1" startPos="90.95" endPos="105.95" friendlyPos="true"/>
    <busStop id="-237096" name="Résidences Firdaouss" lane="-63246#2_1" startPos="145.04" endPos="160.04" friendlyPos="true"/>
    <busStop id="-237316" name="Terminus Sidi Al-Khadir" lane="-62281#0_1" startPos="15.57" endPos="30.57" friendlyPos="true"/>
    <busStop id="-237627" name="Derb Jamila" lane="-61432#5_1" startPos="0.00" endPos="3.81" friendlyPos="true"/>
    <busStop id="-237720" name="Café Tafoukt" lane="--62236#5_1" startPos="12.17" endPos="27.17" friendlyPos="true" lines="L19 L63"/>
    <busStop id="-238909" name="Abdellah Ben Cherif" lane="-63260#24_0" startPos="122.41" endPos="147.41" friendlyPos="true" lines="T2">
        <access lane="--63678#0_0" pos="101.49" length="13.23" friendlyPos="1"/>
        <access lane="-63561#0_0" pos="0.00" length="105.88" friendlyPos="1"/>
        <access lane="-63590#7_0" pos="15.08" length="89.60" friendlyPos="1"/>
        <access lane="-63590#8_0" pos="2.34" length="89.07" friendlyPos="1"/>
        <access lane="-63678#0_0" pos="62.14" length="0.63" friendlyPos="1"/>
    </busStop>
    <busStop id="-238969" name="Hay Hassani" lane="-61723#7_1" startPos="0.00" endPos="3.36" friendlyPos="true"/>
    <busStop id="-239052" name="Rond Point Chahdia" lane="-60679#2_1" startPos="1.85" endPos="16.85" friendlyPos="true"/>
    <busStop id="-239348" name="Mosquée Afghanistan" lane="-61863#2_1" startPos="4.52" endPos="19.52" friendlyPos="true"/>
    <busStop id="-239417" name="Hay Salam" lane="-62902#1_1" startPos="0.00" endPos="15.00" friendlyPos="true"/>
    <busStop id="-239630" name="Anfa Clubs" lane="-63260#43_0" startPos="64.79" endPos="89.79" friendlyPos="true" lines="T2">
        <access lane="--61235#8_0" pos="63.80" length="17.57" friendlyPos="1"/>
        <access lane="--63743#8_0" pos="64.25" length="115.27" friendlyPos="1"/>
        <access lane="-61235#8_0" pos="77.21" length="4.97" friendlyPos="1"/>
        <access lane="-62094#1_0" pos="200.50" length="102.56" friendlyPos="1"/>
        <access lane="-62094#4_0" pos="0.00" length="101.83" friendlyPos="1"/>
    </busStop>
    <busStop id="-239853" name="Moulouya" lane="-62319#28_0" startPos="102.55" endPos="117.55" friendlyPos="true">
        <access lane="--60100#6_0" pos="0.00" length="32.24" friendlyPos="1"/>
        <access lane="-60100#6_0" pos="38.33" length="34.97" friendlyPos="1"/>
        <access lane="-60562#2_0" pos="35.71" length="28.12" friendlyPos="1"/>
        <access lane="-60562#3_0" pos="0.00" length="30.97" friendlyPos="1"/>
        <access lane="-61972_0" pos="106.87" length="12.92" friendlyPos="1"/>
    </busStop>
    <busStop id="-239922" name="Terminus Hay Hassani" lane="-60591_1" startPos="38.70" endPos="53.70" friendlyPos="true"/>
    <busStop id="-240283" name="Café Bouchiki" lane="-62236#11_1" startPos="0.00" endPos="6.88" friendlyPos="true"/>
    <busStop id="-240577" name="Tribunal" lane="-61828#2_1" startPos="8.42" endPos="23.42" friendlyPos="true"/>
    <busStop id="-240708" name="Cité Police Ibn Sina" lane="--60276#4_1" startPos="0.00" endPos="15.00" friendlyPos="true" lines="L9E"/>
    <busStop id="-240790" name="Café Tafoukt" lane="-62236#5_1" startPos="12.36" endPos="27.36" friendlyPos="true"/>
    <busStop id="-240850" name="Anfa Park" lane="-62632#19_0" startPos="33.88" endPos="58.88" friendlyPos="true" lines="T2">
        <access lane="-60542#4_0" pos="52.46" length="52.83" friendlyPos="1"/>
        <access lane="-60695#16_0" pos="52.66" length="47.54" friendlyPos="1"/>
        <access lane="-60699#2_0" pos="20.69" length="20.82" friendlyPos="1"/>
        <access lane="-61170#0_0" pos="22.05" length="15.96" friendlyPos="1"/>
        <access lane="-62964#0_0" pos="76.19" length="12.28" friendlyPos="1"/>
    </busStop>
    <busStop id="-240980" name="C.A. Tensift" lane="-59891#10_1" startPos="73.86" endPos="88.86" friendlyPos="true"/>
    <busStop id="-240980@-844" name="C.A. Tensift" lane="--59891#10_1" startPos="10.85" endPos="25.85" friendlyPos="true" lines="L143 L68"/>
    <busStop id="-241359" name="Dar Lhamra" lane="--63194#2_1" startPos="62.22" endPos="77.22" friendlyPos="true" lines="L50 L143 L9E"/>
    <busStop id="-241481" name="Café Atlas" lane="--60350_1" startPos="59.34" endPos="74.34" friendlyPos="true" lines="L109"/>
    <busStop id="-241597" name="Boulevard des Facultés" lane="--60848#0_1" startPos="1.70" endPos="16.70" friendlyPos="true" lines="L9E"/>
    <busStop id="-241872" name="Oued Beht" lane="-62697#8_0" startPos="14.09" endPos="29.09" friendlyPos="true">
        <access lane="-60390#3_0" pos="82.36" length="32.87" friendlyPos="1"/>
        <access lane="-60390#4_0" pos="0.00" length="46.76" friendlyPos="1"/>
        <access lane="-60516#1_0" pos="0.00" length="57.86" friendlyPos="1"/>
        <access lane="-62089_0" pos="0.00" length="51.34" friendlyPos="1"/>
        <access lane="-62326#0_0" pos="21.50" length="11.92" friendlyPos="1"/>
    </busStop>
    <busStop id="-242695" name="Terminus Hay Salam" lane="-63996#3_1" startPos="33.61" endPos="48.61" friendlyPos="true"/>
    <busStop id="-242707" name="Groupe Scolaire Al Amjad" lane="--62783#1_1" startPos="24.09" endPos="39.09" friendlyPos="true" lines="L68 L9E"/>
    <busStop id="-242862" name="Café Kairaouan" lane="--63267#13_1" startPos="0.00" endPos="15.00" friendlyPos="true" lines="L50"/>
    <busStop id="-242965" name="Place Financière" lane="-63260#32_0" startPos="66.34" endPos="91.34" friendlyPos="true" lines="T2">
        <access lane="-60244#2_0" pos="72.03" length="29.91" friendlyPos="1"/>
        <access lane="-60743#2_0" pos="22.58" length="43.65" friendlyPos="1"/>
        <access lane="-61381#5_0" pos="78.82" length="17.31" friendlyPos="1"/>
        <access lane="-62130#20_0" pos="40.25" length="32.89" friendlyPos="1"/>
        <access lane="-63940#3_0" pos="72.04" length="26.66" friendlyPos="1"/>
    </busStop>
    <busStop id="-243093" name="ISTA Afghanistan" lane="--63761#0_1" startPos="21.95" endPos="36.95" friendlyPos="true" lines="L301 L63"/>
    <busStop id="-243234" name="Hay Hassani" lane="-62632#54_0" startPos="0.00" endPos="0.28" friendlyPos="true" lines="T2">
        <access lane="--63988_0" pos="0.00" length="15.77" friendlyPos="1"/>
        <access lane="-61083#1_0" pos="21.30" length="15.25" friendlyPos="1"/>
        <access lane="-61083#2_0" pos="0.00" length="16.48" friendlyPos="1"/>
        <access lane="-63988_0" pos="20.90" length="17.87" friendlyPos="1"/>
        <access lane="-63998#0_0" pos="0.00" length="25.40" friendlyPos="1"/>
    </busStop>
    <busStop id="-243328" name="Stade Hay Hassani" lane="-62894#2_1" startPos="120.18" endPos="135.18" friendlyPos="true"/>
    <busStop id="-243481" name="Cité de l&apos;Air" lane="-62632#36_0" startPos="28.19" endPos="53.19" friendlyPos="true" lines="T2">
        <access lane="-60863#3_0" pos="3.13" length="59.58" friendlyPos="1"/>
        <access lane="-60863#5_0" pos="0.00" length="60.03" friendlyPos="1"/>
        <access lane="-60863#6_0" pos="0.00" length="60.67" friendlyPos="1"/>
        <access lane="-63840#0_0" pos="0.00" length="59.25" friendlyPos="1"/>
        <access lane="-63951#5_0" pos="3.01" length="61.56" friendlyPos="1"/>
    </busStop>
    <busStop id="-243740" name="École Al Ajial" lane="-60502#0_1" startPos="17.70" endPos="32.70" friendlyPos="true"/>
    <busStop id="-243870" name="Résidences Firdaouss" lane="-60108#1_1" startPos="0.00" endPos="15.00" friendlyPos="true"/>
    <busStop id="-244074" name="Rond Point Chahdia" lane="--60679#2_1" startPos="5.06" endPos="20.06" friendlyPos="true" lines="L109"/>
    <busStop id="-244074@-850" name="Rond Point Chahdia" lane="-60679#2_1" startPos="2.86" endPos="17.86" friendlyPos="true"/>
    <busStop id="-244135" name="Souk Ould Mina" lane="--63194#12_1" startPos="1.20" endPos="16.20" friendlyPos="true" lines="L50 L143 L9E"/>
    <busStop id="-244186" name="Sidi Al Khadir" lane="-62281#0_1" startPos="12.33" endPos="27.33" friendlyPos="true"/>
    <busStop id="-244196" name="Stade Père-Jégo" lane="-60662#1_1" startPos="41.34" endPos="56.34" friendlyPos="true"/>
    <busStop id="-244636" name="Mosquée Afghanistan" lane="-61863#2_1" startPos="2.85" endPos="17.85" friendlyPos="true"/>
    <busStop id="-244636@-847" name="Mosquée Afghanistan" lane="--61863#2_1" startPos="56.80" endPos="71.80" friendlyPos="true" lines="L19 L63"/>
    <busStop id="-244809" name="École Elbennay" lane="-59891#1_1" startPos="7.24" endPos="22.24" friendlyPos="true"/>
    <busStop id="-244809@-844" name="École Elbennay" lane="--59891#1_1" startPos="32.45" endPos="47.45" friendlyPos="true" lines="L143 L68"/>
    <busStop id="-245739" name="L&apos;Academie" lane="-59772_1" startPos="73.25" endPos="88.25" friendlyPos="true"/>
    <busStop id="-245754" name="Facultés Terminus" lane="-60395#10_0" startPos="0.00" endPos="25.00" friendlyPos="true" lines="T1">
        <access lane="--62873#1_0" pos="0.00" length="49.53" friendlyPos="1"/>
        <access lane="-60158#1_0" pos="86.95" length="21.45" friendlyPos="1"/>
        <access lane="-62143_0" pos="21.23" length="57.42" friendlyPos="1"/>
        <access lane="-62873#1_0" pos="95.30" length="51.40" friendlyPos="1"/>
        <access lane="-63429#4_0" pos="129.23" length="9.53" friendlyPos="1"/>
    </busStop>
    <busStop id="-245765" name="Angle Oum Rabia/Naciri" lane="-63375_1" startPos="0.00" endPos="15.00" friendlyPos="true"/>
    <busStop id="-246422" name="École Elbennay" lane="--59891#1_1" startPos="31.70" endPos="46.70" friendlyPos="true" lines="L68 L143"/>
    <busStop id="-246466" name="Oued Beht" lane="-62319#23_0" startPos="422.58" endPos="437.58" friendlyPos="true">
        <access lane="-60390#3_0" pos="82.84" length="20.31" friendlyPos="1"/>
        <access lane="-60390#4_0" pos="0.00" length="37.60" friendlyPos="1"/>
        <access lane="-60516#1_0" pos="0.00" length="48.44" friendlyPos="1"/>
        <access lane="-62089_0" pos="0.00" length="40.42" friendlyPos="1"/>
        <access lane="-62326#0_0" pos="21.23" length="24.50" friendlyPos="1"/>
    </busStop>
    <busStop id="-246544" name="Polyclinique CNSS Rabia" lane="-62142#3_1" startPos="8.54" endPos="23.54" friendlyPos="true"/>
    <busStop id="-246772" name="Anfa Clubs" lane="-62632#11_0" startPos="54.34" endPos="79.34" friendlyPos="true" lines="T2">
        <access lane="--60181#3_0" pos="68.34" length="118.35" friendlyPos="1"/>
        <access lane="--61235#8_0" pos="65.19" length="14.02" friendlyPos="1"/>
        <access lane="-61235#8_0" pos="75.82" length="1.42" friendlyPos="1"/>
        <access lane="-62094#1_0" pos="200.50" length="103.89" friendlyPos="1"/>
        <access lane="-62094#4_0" pos="0.00" length="104.87" friendlyPos="1"/>
    </busStop>
    <busStop id="-246836" name="Oued Oum Rabia" lane="-62319#12_0" startPos="21.08" endPos="36.08" friendlyPos="true">
        <access lane="-63626#1_0" pos="0.20" length="4.47" friendlyPos="1"/>
        <access lane="-63626#2_0" pos="0.00" length="6.56" friendlyPos="1"/>
        <access lane="-63626#3_0" pos="0.00" length="11.43" friendlyPos="1"/>
        <access lane="-63892#2_0" pos="36.67" length="16.13" friendlyPos="1"/>
        <access lane="-63892#3_0" pos="0.00" length="17.33" friendlyPos="1"/>
    </busStop>
    <busStop id="-246868" name="Beauséjour" lane="-62632#1_0" startPos="30.61" endPos="55.61" friendlyPos="true" lines="T2">
        <access lane="--59809_0" pos="37.23" length="29.17" friendlyPos="1"/>
        <access lane="-59809_0" pos="0.00" length="32.91" friendlyPos="1"/>
        <access lane="-62206#10_0" pos="0.08" length="24.02" friendlyPos="1"/>
        <access lane="-62206#9_0" pos="63.20" length="31.25" friendlyPos="1"/>
        <access lane="-63478#1_0" pos="43.10" length="17.33" friendlyPos="1"/>
    </busStop>
    <busStop id="-247307" name="Oued Laou" lane="-62697#10_0" startPos="489.90" endPos="504.90" friendlyPos="true">
        <access lane="-60672#2_0" pos="15.04" length="21.82" friendlyPos="1"/>
        <access lane="-62787_0" pos="0.00" length="18.52" friendlyPos="1"/>
        <access lane="-62790#1_0" pos="76.08" length="20.44" friendlyPos="1"/>
        <access lane="-62790#2_0" pos="6.28" length="10.25" friendlyPos="1"/>
        <access lane="-63888_0" pos="35.61" length="15.70" friendlyPos="1"/>
    </busStop>
    <busStop id="-247348" name="Pharmacie Tam" lane="-61124#0_1" startPos="28.14" endPos="43.14" friendlyPos="true"/>
    <busStop id="-247899" name="Résidence Abwab Rabia" lane="-63537#2_1" startPos="63.24" endPos="78.24" friendlyPos="true"/>
    <busStop id="-248186" name="Sidi Abderrahmane" lane="-62632#46_0" startPos="15.43" endPos="40.43" friendlyPos="true" lines="T2">
        <access lane="-60779#2_0" pos="27.67" length="20.61" friendlyPos="1"/>
        <access lane="-62665#1_0" pos="0.20" length="46.65" friendlyPos="1"/>
        <access lane="-62665#2_0" pos="0.20" length="45.76" friendlyPos="1"/>
        <access lane="-62665#3_0" pos="0.00" length="46.01" friendlyPos="1"/>