<?xml version="1.0" encoding="UTF-8"?>

<!-- generated on 2025-08-20 02:29:23.622527 by scenarioFromOSM.py UNKNOWN
<configuration>
    <parking-areas value="osm_taxi_stands.add.xml"/>
    <sumo-net value="osm.net.xml"/>
    <max-distance-alternatives value="5000.0"/>
    <min-capacity-visibility-true value="50"/>
    <max-distance-visibility-true value="1000.0"/>
    <output value="osm_taxi_rerouters.add.xml"/>
    <tqdm value="True"/>
</configuration>
-->

<additional xmlns:xsi="http://www.w3.org/2001/XMLSchema-instance" xsi:noNamespaceSchemaLocation="http://sumo.dlr.de/xsd/additional_file.xsd">

    <rerouter id="-227162" edges="-60276#0">
        <interval begin="0.0" end="86400.0">
            <!-- in order of distance --> 
            <parkingAreaReroute id="-227162" visible="true"/> <!-- dist: 0.0 -->
            <parkingAreaReroute id="-241379" visible="true"/> <!-- dist: 593.3 -->
            <parkingAreaReroute id="-235181" visible="false"/> <!-- dist: 1608.2 -->
            <parkingAreaReroute id="-231315" visible="false"/> <!-- dist: 2176.2 -->
            <parkingAreaReroute id="-239196" visible="false"/> <!-- dist: 4162.8 -->
        </interval>
    </rerouter>

    <rerouter id="-231315" edges="-61259">
        <interval begin="0.0" end="86400.0">
            <!-- in order of distance --> 
            <parkingAreaReroute id="-231315" visible="true"/> <!-- dist: 0.0 -->
            <parkingAreaReroute id="-227162" visible="false"/> <!-- dist: 2385.6 -->
            <parkingAreaReroute id="-241379" visible="false"/> <!-- dist: 2660.2 -->
            <parkingAreaReroute id="-235181" visible="false"/> <!-- dist: 3617.6 -->
            <parkingAreaReroute id="-239196" visible="false"/> <!-- dist: 4065.6 -->
        </interval>
    </rerouter>

    <rerouter id="-239196" edges="-62799#0">
        <interval begin="0.0" end="86400.0">
            <!-- in order of distance --> 
            <parkingAreaReroute id="-239196" visible="true"/> <!-- dist: 0.0 -->
            <parkingAreaReroute id="-227162" visible="false"/> <!-- dist: 3959.7 -->
            <parkingAreaReroute id="-231315" visible="false"/> <!-- dist: 4120.3 -->
            <parkingAreaReroute id="-241379" visible="false"/> <!-- dist: 4234.2 -->
            <parkingAreaReroute id="-235181" visible="false"/> <!-- dist: 4483.4 -->
        </interval>
    </rerouter>

    <rerouter id="-241379" edges="--62236#3">
        <interval begin="0.0" end="86400.0">
            <!-- in order of distance --> 
            <parkingAreaReroute id="-241379" visible="true"/> <!-- dist: 0.0 -->
            <parkingAreaReroute id="-227162" visible="true"/> <!-- dist: 754.0 -->
            <parkingAreaReroute id="-235181" visible="false"/> <!-- dist: 1698.6 -->
            <parkingAreaReroute id="-231315" visible="false"/> <!-- dist: 2492.0 -->
            <parkingAreaReroute id="-239196" visible="false"/> <!-- dist: 4483.4 -->
        </interval>
    </rerouter>
</additional>
