<?xml version="1.0" encoding="UTF-8"?>

<!-- generated on 2025-08-20 02:28:53 by Eclipse SUMO polyconvert Version c915cd253
<polyconvertConfiguration xmlns:xsi="http://www.w3.org/2001/XMLSchema-instance" xsi:noNamespaceSchemaLocation="http://sumo.dlr.de/xsd/polyconvertConfiguration.xsd">

    <input>
        <net-file value="osm.net.xml"/>
        <osm-files value="H2ST8.osm"/>
    </input>

    <output>
        <output-file value="osm_polygons.add.xml"/>
    </output>

</polyconvertConfiguration>
-->

<additional xmlns:xsi="http://www.w3.org/2001/XMLSchema-instance" xsi:noNamespaceSchemaLocation="http://sumo.dlr.de/xsd/additional_file.xsd">
    <location netOffset="-609816.05,-3714057.03" convBoundary="-36.35,-6.14,4125.01,4242.39" origBoundary="-7.817119,33.560377,-7.772337,33.598635" projParameter="+proj=utm +zone=29 +ellps=WGS84 +datum=WGS84 +units=m +no_defs"/>

    <poly id="-59714" type="building" color="255,230,230" fill="1" layer="-1.00" shape="1017.774123,3519.367559 1023.365085,3504.542576 1038.483139,3510.193846 1033.658302,3522.965528 1047.334737,3528.079103 1041.322790,3543.996804 1025.992260,3538.265469 1031.219479,3524.400839 1017.774123,3519.367559"/>
    <poly id="-59717" type="building" color="255,230,230" fill="1" layer="-1.00" shape="511.933163,1999.191016 520.904144,1997.996842 520.271178,1993.299908 511.300065,1994.505167 511.933163,1999.191016"/>
    <poly id="-59718" type="building" color="255,230,230" fill="1" layer="-1.00" shape="291.887276,1463.787003 288.689624,1470.657377 273.232095,1463.529026 276.429738,1456.658647 291.887276,1463.787003"/>
    <poly id="-59721" type="building" color="255,230,230" fill="1" layer="-1.00" shape="1326.834098,2150.843410 1332.060125,2189.352603 1339.543358,2243.764101 1343.847635,2243.181935 1347.200931,2267.844339 1341.585908,2268.599818 1341.731117,2269.687996 1333.438772,2270.800553 1330.478643,2249.058511 1325.849032,2249.681268 1319.441743,2202.555117 1318.949094,2202.615942 1312.182822,2152.813748 1326.834098,2150.843410"/>
    <poly id="-59722" type="leisure" color="207,245,201" fill="1" layer="-2.00" shape="3411.251891,2955.716860 3428.816203,2956.167745 3429.592399,2924.956379 3412.197946,2924.263587 3411.251891,2955.716860"/>
    <poly id="-59722#1" type="sport" color="79,230,125" fill="1" layer="-2.00" shape="3411.251891,2955.716860 3428.816203,2956.167745 3429.592399,2924.956379 3412.197946,2924.263587 3411.251891,2955.716860"/>
    <poly id="-59726" type="building" color="255,230,230" fill="1" layer="-1.00" shape="1040.607904,336.514873 1052.358859,343.158204 1057.598677,333.972310 1045.847714,327.328973 1040.607904,336.514873"/>
    <poly id="-59730" type="building" color="255,230,230" fill="1" layer="-1.00" shape="2203.207289,2597.790999 2205.803525,2591.645930 2209.476601,2592.653291 2211.266283,2588.815957 2224.968611,2594.962545 2220.195334,2605.528027 2203.207289,2597.790999"/>
    <poly id="-59735" type="building" color="255,230,230" fill="1" layer="-1.00" shape="3238.363764,1852.128811 3239.556257,1854.127373 3212.120747,1870.423873 3188.305111,1830.685955 3251.093983,1793.385429 3273.726127,1831.136133 3238.363764,1852.128811"/>
    <poly id="-59739" type="building" color="255,230,230" fill="1" layer="-1.00" shape="2224.649487,317.085602 2224.346165,308.057466 2241.750674,307.495241 2242.147902,319.617671 2228.226066,320.076338 2228.122985,316.970851 2224.649487,317.085602"/>
    <poly id="-59743" type="landuse" color="194,194,130" fill="1" layer="-3.00" shape="2726.364024,2505.419051 2739.422338,2500.760302 2737.032993,2486.829482 2709.309865,2456.570525 2726.364024,2505.419051"/>
    <poly id="-59744" type="building" color="255,230,230" fill="1" layer="-1.00" shape="826.236953,620.515074 832.552205,605.775928 861.976318,618.276597 854.926776,634.703536 848.155158,631.820682 848.422332,631.191818 843.461358,629.083696 843.909741,628.035621 826.236953,620.515074"/>
    <poly id="-59752" type="leisure" color="207,245,201" fill="1" layer="-2.00" shape="698.349316,3492.893671 731.855636,3431.337636 824.413466,3481.251157 790.915978,3542.806989 698.349316,3492.893671"/>
    <poly id="-59752#1" type="sport" color="79,230,125" fill="1" layer="-2.00" shape="698.349316,3492.893671 731.855636,3431.337636 824.413466,3481.251157 790.915978,3542.806989 698.349316,3492.893671"/>
    <poly id="-59755" type="building" color="255,230,230" fill="1" layer="-1.00" shape="1157.154831,1333.366640 1165.523257,1336.988802 1170.166358,1326.388075 1161.797923,1322.765907 1157.154831,1333.366640"/>
    <poly id="-59756" type="building" color="255,230,230" fill="1" layer="-1.00" shape="560.781446,1828.129863 575.182323,1833.439447 571.188509,1844.158760 570.865071,1844.033091 567.034009,1854.321893 552.966005,1849.127009 560.781446,1828.129863"/>
    <poly id="-59760" type="building" color="255,230,230" fill="1" layer="-1.00" shape="1271.896500,807.341441 1257.029979,801.249417 1256.810345,801.779042 1246.868637,797.695181 1253.152818,782.479200 1270.486299,789.586428 1269.646039,791.605587 1277.453566,794.800056 1277.892837,793.740807 1290.412590,798.863378 1262.937140,865.287915 1250.103409,860.028710 1271.896500,807.341441"/>
    <poly id="-59765" type="building" color="255,230,230" fill="1" layer="-1.00" shape="2252.648750,299.628679 2271.852646,300.805918 2271.303346,309.702166 2269.318031,309.579248 2268.950326,315.639409 2256.194119,314.858818 2256.365003,312.144559 2251.893374,311.870722 2252.648750,299.628679"/>
    <poly id="-59766" type="building" color="255,230,230" fill="1" layer="-1.00" shape="4094.671846,1307.610863 4089.375930,1300.164302 4084.813713,1298.957228 4076.303300,1306.617187 4088.190926,1316.348101 4094.671846,1307.610863"/>
    <poly id="-59768" type="leisure" color="207,245,201" fill="1" layer="-2.00" shape="3169.839611,2862.129758 3165.098768,2828.015317 3179.605745,2826.434166 3184.040032,2860.567185 3169.839611,2862.129758"/>
    <poly id="-59768#1" type="sport" color="79,230,125" fill="1" layer="-2.00" shape="3169.839611,2862.129758 3165.098768,2828.015317 3179.605745,2826.434166 3184.040032,2860.567185 3169.839611,2862.129758"/>
    <poly id="-59770" type="building" color="255,230,230" fill="1" layer="-1.00" shape="997.166125,3293.670087 1010.465604,3300.918987 1005.403366,3310.129105 1007.330927,3311.182402 1003.956148,3317.318786 988.728998,3309.027686 997.166125,3293.670087"/>
    <poly id="-59774" type="building" color="255,230,230" fill="1" layer="-1.00" shape="2177.749134,375.942095 2169.992625,379.521487 2168.389628,376.065936 2163.498735,378.315031 2157.647923,365.729993 2170.285928,359.912471 2177.749134,375.942095"/>
    <poly id="-59776" type="leisure" color="207,245,201" fill="1" layer="-2.00" shape="3461.158617,2843.053058 3466.670684,2853.384438 3445.310912,2864.674057 3439.789549,2854.342581 3461.158617,2843.053058"/>
    <poly id="-59776#1" type="sport" color="79,230,125" fill="1" layer="-2.00" shape="3461.158617,2843.053058 3466.670684,2853.384438 3445.310912,2864.674057 3439.789549,2854.342581 3461.158617,2843.053058"/>
    <poly id="-59777" type="building" color="255,230,230" fill="1" layer="-1.00" shape="1112.231258,2167.921357 1129.152840,2174.314132 1132.838153,2164.633619 1115.916428,2158.251924 1112.231258,2167.921357"/>
    <poly id="-59781" type="building" color="255,230,230" fill="1" layer="-1.00" shape="474.644077,1907.198174 486.108520,1911.975036 488.961898,1905.178378 477.506729,1900.401619 474.644077,1907.198174"/>
    <poly id="-59782" type="building" color="255,230,230" fill="1" layer="-1.00" shape="3452.106826,891.090593 3473.246040,892.581333 3474.572123,886.399434 3482.524390,887.490936 3483.957549,892.707532 3507.063271,896.693873 3510.521662,878.153150 3504.794616,878.085659 3504.847260,873.618300 3502.120670,872.599443 3502.706550,865.422102 3457.674091,862.164191 3455.856065,868.340298 3459.587467,868.384251 3460.001211,875.817280 3446.324627,874.425551 3446.266265,879.380661 3453.196240,882.932456 3452.106826,891.090593"/>
    <poly id="-59783" type="building" color="255,230,230" fill="1" layer="-1.00" shape="682.010560,3717.622042 688.005109,3720.906142 693.473500,3711.035339 687.469795,3707.740044 682.010560,3717.622042"/>
    <poly id="-59784" type="building" color="255,230,230" fill="1" layer="-1.00" shape="3370.181954,822.407824 3371.532922,792.810902 3360.215446,791.314024 3359.360419,822.158506 3370.181954,822.407824"/>
    <poly id="-59792" type="building" color="255,230,230" fill="1" layer="-1.00" shape="1501.242354,2959.521702 1501.447875,2964.213776 1487.546827,2964.817741 1487.053720,2953.703108 1499.469080,2953.159541 1499.756651,2959.582099 1501.242354,2959.521702"/>
    <poly id="-59794" type="building" color="255,230,230" fill="1" layer="-1.00" shape="2699.023930,2495.564301 2690.864950,2498.761564 2679.753331,2465.570691 2687.427411,2462.567303 2699.023930,2495.564301"/>
    <poly id="-59796" type="building" color="255,230,230" fill="1" layer="-1.00" shape="608.000937,511.341963 602.735852,518.731752 589.778779,509.591713 595.034576,502.201808 608.000937,511.341963"/>
    <poly id="-59797" type="building" color="255,230,230" fill="1" layer="-1.00" shape="503.798629,3249.521859 517.539373,3256.364918 524.814777,3241.891617 511.083296,3235.048655 503.798629,3249.521859"/>
    <poly id="-59799" type="building" color="255,230,230" fill="1" layer="-1.00" shape="1697.312080,685.909841 1695.252188,693.025801 1680.956916,688.913181 1685.347125,673.775280 1692.027562,675.693132 1691.166740,678.676565 1694.738241,679.704695 1693.268602,684.754282 1697.312080,685.909841"/>
    <poly id="-59808" type="natural" color="140,196,107" fill="0" layer="-4.00" shape="3150.565371,2872.901286 3140.448759,2789.187776"/>
    <poly id="-59810" type="amenity" color="237,199,199" fill="1" layer="-1.00" shape="1622.703372,2476.327779 1636.852836,2474.374282 1635.698308,2465.879537 1620.984263,2467.693448 1622.703372,2476.327779"/>
    <poly id="-59810#1" type="building" color="255,230,230" fill="1" layer="-1.00" shape="1622.703372,2476.327779 1636.852836,2474.374282 1635.698308,2465.879537 1620.984263,2467.693448 1622.703372,2476.327779"/>
    <poly id="-59815" type="building" color="255,230,230" fill="1" layer="-1.00" shape="1156.816816,3397.311088 1163.394881,3400.702002 1166.574225,3394.618848 1159.996285,3391.216846 1156.816816,3397.311088"/>
    <poly id="-59816" type="parking" color="184,184,179" fill="1" layer="-1.00" shape="2056.464288,1866.506505 2069.197287,1868.306621 2081.790539,1870.947721 2094.521572,1874.510642 2107.060262,1878.647853 2124.222185,1884.324538 2123.642937,1889.428789 2122.304320,1894.380068 2120.235339,1899.078933 2117.474283,1903.426051 2114.096820,1907.300349 2110.177972,1910.636181 2105.793022,1913.345727 2101.053986,1915.374863 2096.072881,1916.669455 2093.863336,1917.497414 2091.871504,1918.760289 2090.190840,1920.403737 2088.887086,1922.362002 2088.016960,1924.547050 2081.933115,1966.350903 2092.266598,1976.515798 2147.909927,1987.197260 2153.265052,1987.259636 2162.116420,1998.748843 2084.743317,1987.282148 2075.469761,1969.790168 2073.026463,1965.182898 2069.829354,1959.147751 2060.328748,1941.220761 2066.454987,1905.337720 2080.527781,1894.104338 2077.744806,1889.171598 2074.325683,1884.663840 2070.334605,1880.648328 2065.835636,1877.203418 2060.911661,1874.385510 2055.654718,1872.262195 2056.464288,1866.506505"/>
    <poly id="-59818" type="building" color="255,230,230" fill="1" layer="-1.00" shape="2770.579333,232.971885 2778.059759,224.012647 2765.284364,214.550223 2758.578490,223.518535 2770.579333,232.971885"/>
    <poly id="-59822" type="building" color="255,230,230" fill="1" layer="-1.00" shape="2686.006171,3085.040925 2704.413815,3111.731737 2724.281304,3098.560463 2704.563593,3071.200148 2686.006171,3085.040925"/>
    <poly id="-59823" type="building" color="255,230,230" fill="1" layer="-1.00" shape="1325.414346,1867.417101 1343.316845,1866.881288 1344.815967,1916.245621 1326.913560,1916.781429 1325.414346,1867.417101"/>
    <poly id="-59824" type="building" color="255,230,230" fill="1" layer="-1.00" shape="2059.086428,1361.979098 2047.867834,1338.466625 2022.964227,1350.239289 2005.014651,1358.722520 2016.224168,1382.223750 2025.595595,1377.798280 2059.086428,1361.979098"/>
    <poly id="-59826" type="leisure" color="207,245,201" fill="1" layer="-2.00" shape="2556.514747,285.194568 2582.083312,249.383865 2601.738652,261.986359 2576.740513,298.236061 2556.514747,285.194568"/>
    <poly id="-59826#1" type="sport" color="79,230,125" fill="1" layer="-2.00" shape="2556.514747,285.194568 2582.083312,249.383865 2601.738652,261.986359 2576.740513,298.236061 2556.514747,285.194568"/>
    <poly id="-59828" type="amenity" color="237,199,199" fill="1" layer="-1.00" shape="1399.608456,3361.603052 1406.978355,3365.535463 1415.316833,3369.977998 1431.753781,3378.749444 1439.713956,3382.999145 1456.483000,3391.940783 1455.591460,3393.593470 1463.016734,3397.548743 1470.100710,3401.322679 1470.783735,3400.044526 1481.630924,3405.835504 1490.541202,3410.584074 1500.004907,3415.627319 1533.591304,3353.243304 1432.995250,3299.582259 1399.608456,3361.603052"/>
    <poly id="-59833" type="building" color="255,230,230" fill="1" layer="-1.00" shape="1644.141182,1309.376022 1665.433935,1319.168551 1669.320921,1316.985189 1673.226676,1313.183384 1675.564065,1304.540667 1674.766275,1298.090028 1668.370240,1291.696430 1654.472401,1287.810155 1644.141182,1309.376022"/>
    <poly id="-59834" type="building" color="255,230,230" fill="1" layer="-1.00" shape="2279.293601,223.939597 2269.366649,230.520299 2258.881943,214.854522 2268.808903,208.273808 2279.293601,223.939597"/>
    <poly id="-59838" type="building" color="255,230,230" fill="1" layer="-1.00" shape="1622.629278,2799.694035 1630.912615,2804.125012 1634.526270,2797.448350 1626.233649,2793.017263 1622.629278,2799.694035"/>
    <poly id="-59840" type="building" color="255,230,230" fill="1" layer="-1.00" shape="3877.308272,1261.286052 3896.612552,1277.357407 3926.851535,1243.257225 3907.551821,1226.797828 3877.308272,1261.286052"/>
    <poly id="-59841" type="leisure" color="207,245,201" fill="1" layer="-2.00" shape="3576.695495,2206.523802 3558.050322,2217.324166 3542.500593,2190.754127 3561.155209,2179.942758 3576.695495,2206.523802"/>
    <poly id="-59841#1" type="sport" color="79,230,125" fill="1" layer="-2.00" shape="3576.695495,2206.523802 3558.050322,2217.324166 3542.500593,2190.754127 3561.155209,2179.942758 3576.695495,2206.523802"/>
    <poly id="-59845" type="building" color="255,230,230" fill="1" layer="-1.00" shape="1837.894730,571.307801 1817.228342,581.001593 1813.159780,572.406507 1816.716294,570.729346 1816.235911,569.725966 1821.593827,567.216040 1820.642471,565.198299 1832.394574,559.680496 1837.894730,571.307801"/>
    <poly id="-59847" type="building" color="255,230,230" fill="1" layer="-1.00" shape="1420.814824,1014.821108 1437.143491,1023.679823 1443.618514,1012.845415 1427.409088,1004.110024 1420.814824,1014.821108"/>
    <poly id="-59849" type="building" color="255,230,230" fill="1" layer="-1.00" shape="1180.489755,1318.269824 1193.430308,1323.873882 1199.055817,1311.000648 1186.105968,1305.396477 1180.489755,1318.269824"/>
    <poly id="-59850" type="building" color="255,230,230" fill="1" layer="-1.00" shape="1784.272028,2644.869646 1812.888809,2642.330528 1812.601079,2639.134199 1833.822105,2637.252054 1835.867869,2660.092364 1813.411194,2662.082104 1813.961771,2668.219475 1819.889435,2667.700732 1820.677845,2676.534947 1815.493383,2676.995802 1815.362023,2675.519736 1809.694341,2676.030417 1809.053139,2668.905272 1803.868673,2669.366134 1804.025043,2671.086396 1786.762145,2672.615445 1784.272028,2644.869646"/>
    <poly id="-59853" type="building" color="255,230,230" fill="1" layer="-1.00" shape="2691.069235,2759.602924 2671.445822,2766.934403 2665.927524,2752.301766 2685.923729,2744.841596 2691.069235,2759.602924"/>
    <poly id="-59854" type="building" color="255,230,230" fill="1" layer="-1.00" shape="3614.603257,1031.136507 3624.281182,1031.516759 3627.614483,959.857697 3618.490793,958.918555 3614.603257,1031.136507"/>
    <poly id="-59855" type="building" color="255,230,230" fill="1" layer="-1.00" shape="1006.233798,3362.046753 1001.951539,3372.030852 986.934606,3365.638004 991.226132,3355.654008 1006.233798,3362.046753"/>
    <poly id="-59860" type="parking" color="184,184,179" fill="1" layer="-1.00" shape="3364.561243,924.517565 3387.457157,925.030983 3391.408675,843.290212 3368.008461,843.014766 3364.561243,924.517565"/>
    <poly id="-59864" type="building" color="255,230,230" fill="1" layer="-1.00" shape="1941.614227,312.174049 1949.596837,309.107091 1955.843400,325.211082 1939.663806,331.420110 1934.589183,318.323162 1942.786187,315.181083 1941.614227,312.174049"/>
    <poly id="-59869" type="landuse" color="194,194,130" fill="1" layer="-3.00" shape="2739.422338,2500.760302 2771.818093,2489.465354 2762.005760,2469.782222 2730.909243,2465.238306 2719.901816,2446.938164 2708.294907,2453.676076 2737.032993,2486.829482 2739.422338,2500.760302"/>
    <poly id="-59873" type="landuse" color="194,194,130" fill="1" layer="-3.00" shape="3374.925885,1692.167746 3447.244110,1639.581068 3486.670041,1807.911077 3461.467921,1818.168722 3374.925885,1692.167746"/>
    <poly id="-59874" type="building" color="255,230,230" fill="1" layer="-1.00" shape="2274.601120,315.106579 2279.386986,302.756294 2298.546749,310.108386 2295.732771,317.359571 2290.510716,315.358525 2288.538809,320.457611 2274.601120,315.106579"/>
    <poly id="-59878" type="building" color="255,230,230" fill="1" layer="-1.00" shape="1084.688680,3999.253208 1090.931918,4002.673484 1093.036269,3998.850680 1086.792902,3995.441487 1084.688680,3999.253208"/>
    <poly id="-59887" type="building" color="255,230,230" fill="1" layer="-1.00" shape="2846.674133,887.991783 2907.930921,905.750027 2903.956045,919.351251 2842.699338,901.593030 2846.674133,887.991783"/>
    <poly id="-59888" type="building" color="255,230,230" fill="1" layer="-1.00" shape="2716.780559,435.084413 2718.708040,432.213322 2721.670932,434.476429 2724.699068,431.163661 2722.122003,427.663350 2720.921600,423.935240 2721.449057,421.701888 2729.294201,421.671731 2734.611030,425.082150 2737.048018,429.445591 2737.365611,434.039228 2733.754720,433.996972 2729.789913,432.464949 2728.295431,432.447461 2725.510787,436.372849 2729.347657,438.524230 2726.663882,441.763420 2716.780559,435.084413"/>
    <poly id="-59889" type="building" color="255,230,230" fill="1" layer="-1.00" shape="1398.548147,703.869659 1408.188763,704.291581 1408.579589,695.382391 1398.938965,694.960469 1398.548147,703.869659"/>
    <poly id="-59898" type="building" color="255,230,230" fill="1" layer="-1.00" shape="1515.651105,1965.574062 1506.339725,1890.342547 1521.084993,1887.508812 1523.516963,1905.940950 1531.814214,1906.037055 1532.815915,1917.323862 1524.133914,1917.589163 1529.408085,1951.087830 1535.440734,1951.157709 1535.899584,1944.400118 1543.099870,1942.232920 1547.148439,1950.916387 1555.065132,1951.008105 1551.710450,1915.281049 1542.647795,1915.553010 1541.257400,1905.769494 1548.828957,1903.606599 1545.627932,1886.662253 1559.988877,1884.954971 1568.941709,1959.051552 1515.651105,1965.574062"/>
    <poly id="-59902" type="man_made" color="255,230,230" fill="1" layer="-1.00" shape="3497.563140,1859.482295 3499.496365,1860.059424 3501.144098,1861.231874 3502.331699,1862.853462 3502.931059,1864.767459 3502.879563,1866.773567 3502.198258,1868.661381 3500.935901,1870.231915 3499.242950,1871.320642 3497.278622,1871.807480 3495.266185,1871.650718 3493.419107,1870.852868 3491.848497,1869.437415 3490.849393,1867.574140 3490.539837,1865.486171 3490.944796,1863.417710 3492.033555,1861.612305 3493.664675,1860.256766 3495.547958,1859.558322 3497.563140,1859.482295"/>
    <poly id="-59906" type="building" color="255,230,230" fill="1" layer="-1.00" shape="2972.115918,2124.297500 2977.457467,2132.630929 3006.456006,2111.972860 3000.475822,2104.274952 2972.115918,2124.297500"/>
    <poly id="-59908" type="building" color="255,230,230" fill="1" layer="-1.00" shape="1158.582635,2773.481032 1147.752709,2767.723919 1139.642410,2782.852352 1143.839679,2785.084900 1144.314056,2784.192352 1150.946700,2787.716909 1152.312615,2785.171648 1158.582635,2773.481032"/>
    <poly id="-59915" type="building" color="255,230,230" fill="1" layer="-1.00" shape="339.450743,1405.528139 336.054221,1415.167888 328.842601,1412.646201 330.205148,1408.770389 324.639151,1406.832977 323.746765,1409.372689 316.849438,1406.965478 319.775785,1398.661825 339.450743,1405.528139"/>
    <poly id="-59916" type="leisure" color="207,245,201" fill="1" layer="-2.00" shape="2725.825292,2671.903119 2720.633773,2657.107976 2724.939337,2655.617329 2730.168880,2670.335313 2725.825292,2671.903119"/>
    <poly id="-59917" type="leisure" color="207,245,201" fill="1" layer="-2.00" shape="3460.072176,2841.521355 3438.279484,2852.528718 3431.947448,2840.103367 3453.730880,2829.095883 3460.072176,2841.521355"/>
    <poly id="-59917#1" type="sport" color="79,230,125" fill="1" layer="-2.00" shape="3460.072176,2841.521355 3438.279484,2852.528718 3431.947448,2840.103367 3453.730880,2829.095883 3460.072176,2841.521355"/>
    <poly id="-59918" type="building" color="255,230,230" fill="1" layer="-1.00" shape="2932.755737,1931.535300 2929.974422,1927.289697 2936.989255,1921.972708 2940.001035,1926.354056 2932.755737,1931.535300"/>
    <poly id="-59920" type="building" color="255,230,230" fill="1" layer="-1.00" shape="1605.878718,3659.066973 1602.050873,3650.629900 1635.076626,3635.768672 1638.913600,3644.216951 1605.878718,3659.066973"/>
    <poly id="-59922" type="building" color="255,230,230" fill="1" layer="-1.00" shape="2926.133388,502.072313 2893.772427,509.819616 2891.677636,494.484240 2889.067026,490.684145 2898.923162,475.111877 2907.005281,465.949149 2907.454462,460.100600 2921.352639,456.105966 2928.321908,461.099100 2929.317474,466.454592 2931.553177,478.476684 2933.316991,487.987636 2926.133388,502.072313"/>
    <poly id="-59927" type="building" color="255,230,230" fill="1" layer="-1.00" shape="392.782816,3422.431070 401.192482,3427.172868 405.246406,3420.046275 396.846015,3415.304580 392.782816,3422.431070"/>
    <poly id="-59928" type="school" color="237,199,199" fill="1" layer="-2.00" shape="647.508971,2549.938692 669.807863,2559.241765 674.808192,2546.538455 659.073497,2540.282060 654.346966,2540.471638 651.712690,2541.938064 647.508971,2549.938692"/>
    <poly id="-59928#1" type="building" color="255,230,230" fill="1" layer="-1.00" shape="647.508971,2549.938692 669.807863,2559.241765 674.808192,2546.538455 659.073497,2540.282060 654.346966,2540.471638 651.712690,2541.938064 647.508971,2549.938692"/>
    <poly id="-59930" type="building" color="255,230,230" fill="1" layer="-1.00" shape="1230.469473,1269.965645 1259.889325,1278.598327 1254.576204,1296.563936 1244.455016,1293.597738 1245.305091,1290.725013 1239.328620,1288.970802 1236.517556,1298.472902 1222.038802,1294.236861 1224.173638,1287.021895 1225.320848,1287.356658 1230.469473,1269.965645"/>
    <poly id="-59934" type="building" color="255,230,230" fill="1" layer="-1.00" shape="2980.890269,2138.303306 2986.222522,2146.636631 3015.220909,2125.989672 3009.240872,2118.280674 2980.890269,2138.303306"/>
    <poly id="-59935" type="building" color="255,230,230" fill="1" layer="-1.00" shape="1682.646777,3225.295896 1674.417774,3234.613071 1655.840184,3218.354986 1673.417411,3198.447539 1679.150507,3203.469843 1677.476580,3205.357342 1690.955086,3217.143762 1686.459792,3222.224764 1677.474212,3214.359764 1674.276640,3217.981293 1682.646777,3225.295896"/>
    <poly id="-59936" type="building" color="255,230,230" fill="1" layer="-1.00" shape="1925.706354,3291.252768 1928.136524,3277.012358 1954.160746,3277.780695 1956.221899,3295.266334 1925.706354,3291.252768"/>
    <poly id="-59938" type="building" color="255,230,230" fill="1" layer="-1.00" shape="823.245566,3741.421007 845.007587,3753.567720 862.411907,3722.658851 840.649834,3710.512100 823.245566,3741.421007"/>
    <poly id="-59947" type="building" color="255,230,230" fill="1" layer="-1.00" shape="2633.248979,967.502474 2653.187523,981.948888 2644.942071,993.227473 2625.003540,978.781076 2633.248979,967.502474"/>
    <poly id="-59949" type="building" color="255,230,230" fill="1" layer="-1.00" shape="456.368089,1394.872615 464.602310,1398.880656 468.195403,1391.538143 459.970331,1387.541292 456.368089,1394.872615"/>
    <poly id="-59953" type="building" color="255,230,230" fill="1" layer="-1.00" shape="2216.733030,379.023670 2207.041453,384.542845 2205.339964,381.573956 2202.358696,383.268763 2194.787969,370.098245 2207.451544,362.884141 2216.733030,379.023670"/>
    <poly id="-59955" type="building" color="255,230,230" fill="1" layer="-1.00" shape="3209.160421,1720.351374 3178.104112,1679.020577 3112.064911,1724.310250 3145.262470,1769.856803 3209.160421,1720.351374"/>
    <poly id="-59956" type="leisure" color="207,245,201" fill="1" layer="-2.00" shape="3602.814131,2846.065390 3615.010353,2859.402676 3634.815298,2841.465142 3622.628359,2828.127939 3602.814131,2846.065390"/>
    <poly id="-59956#1" type="sport" color="79,230,125" fill="1" layer="-2.00" shape="3602.814131,2846.065390 3615.010353,2859.402676 3634.815298,2841.465142 3622.628359,2828.127939 3602.814131,2846.065390"/>
    <poly id="-59966" type="leisure" color="207,245,201" fill="1" layer="-2.00" shape="3178.923895,2944.412069 3171.282759,2878.322393 3204.016061,2874.571931 3211.675537,2940.661856 3178.923895,2944.412069"/>
    <poly id="-59966#1" type="sport" color="79,230,125" fill="1" layer="-2.00" shape="3178.923895,2944.412069 3171.282759,2878.322393 3204.016061,2874.571931 3211.675537,2940.661856 3178.923895,2944.412069"/>
    <poly id="-59967" type="building" color="255,230,230" fill="1" layer="-1.00" shape="621.543601,1686.718552 626.444146,1677.073997 639.411055,1683.597816 634.510499,1693.242365 621.543601,1686.718552"/>
    <poly id="-59969" type="building" color="255,230,230" fill="1" layer="-1.00" shape="1711.008757,3196.543212 1705.437389,3202.376702 1689.528527,3187.280380 1710.939687,3164.911884 1721.303767,3174.755272 1711.251225,3185.248618 1714.207157,3188.054617 1708.429182,3194.096359 1711.008757,3196.543212"/>
    <poly id="-59970" type="building" color="255,230,230" fill="1" layer="-1.00" shape="749.325556,2359.775132 754.951511,2345.149968 769.635886,2350.751397 764.009911,2365.376549 749.325556,2359.775132"/>
    <poly id="-59977" type="building" color="255,230,230" fill="1" layer="-1.00" shape="1491.472774,3713.884132 1492.556430,3711.668248 1477.217582,3704.295237 1480.840067,3696.820381 1531.997255,3721.404917 1527.300355,3731.095742 1491.472774,3713.884132"/>
    <poly id="-59983" type="building" color="255,230,230" fill="1" layer="-1.00" shape="2682.680885,354.162377 2670.384022,346.656947 2657.873673,366.932444 2651.080001,362.784162 2645.799619,371.336825 2639.853978,367.708457 2621.523771,397.428387 2636.171055,406.380341 2649.050588,385.488278 2653.843934,388.415799 2657.051900,383.220364 2662.647122,386.645084 2682.680885,354.162377"/>
    <poly id="-59984" type="building" color="255,230,230" fill="1" layer="-1.00" shape="1466.377100,479.671784 1488.522813,480.914767 1488.332148,465.302481 1474.729230,447.051562 1455.623151,462.318620 1467.050585,475.222721 1466.377100,479.671784"/>
    <poly id="-59985" type="building" color="255,230,230" fill="1" layer="-1.00" shape="1712.825996,3010.036136 1692.924643,3019.040440 1684.534216,3000.661021 1689.040762,2998.617916 1691.339865,3003.644722 1706.725415,2996.683399 1712.825996,3010.036136"/>
    <poly id="-59987" type="amenity" color="237,199,199" fill="1" layer="-1.00" shape="2832.679511,2421.296244 2829.912558,2413.458709 2834.132125,2412.188836 2836.825220,2419.992245 2832.679511,2421.296244"/>
    <poly id="-59987#1" type="building" color="255,230,230" fill="1" layer="-1.00" shape="2832.679511,2421.296244 2829.912558,2413.458709 2834.132125,2412.188836 2836.825220,2419.992245 2832.679511,2421.296244"/>
    <poly id="-59990" type="building" color="255,230,230" fill="1" layer="-1.00" shape="3735.037231,2778.589080 3747.881946,2771.600936 3757.894727,2789.835162 3745.059309,2796.823404 3735.037231,2778.589080"/>
    <poly id="-59995" type="tourism" color="207,245,201" fill="1" layer="-2.00" shape="1455.382558,1510.775106 1475.328958,1637.649609 1497.012615,1657.723710 1536.941824,1649.272391 1565.652974,1664.472288 1566.743466,1741.803765 1545.052173,1808.959781 1626.374319,1847.464027 1635.310449,1846.902421 1713.353761,1835.933655 1754.722173,1832.200729 1760.770665,1804.520824 1756.252130,1797.151134 1759.179843,1780.832174 1754.893857,1774.219081 1758.483810,1754.426573 1766.271898,1748.818383 1768.927429,1734.358840 1774.586553,1729.834618 1783.460400,1683.473108 1791.228292,1676.412340 1800.611545,1656.542976 1804.694636,1640.658739 1807.898202,1610.185231 1806.237625,1596.507091 1723.705611,1558.940815 1754.553193,1500.428196 1760.129357,1427.874805 1794.425006,1357.062780 1718.546205,1325.937657 1580.028032,1261.791602 1494.776974,1290.383656 1390.675819,1333.980463 1401.110022,1390.931658 1390.200671,1424.819513 1315.202519,1433.098874 1318.134225,1520.773235 1343.692381,1652.978463 1344.609204,1573.685776 1352.935448,1531.962956 1396.199385,1504.890652 1403.498415,1466.127226 1433.125275,1487.290857 1455.382558,1510.775106"/>
    <poly id="-59997" type="school" color="237,199,199" fill="1" layer="-2.00" shape="656.349869,1716.054715 673.690932,1723.194269 679.084643,1710.218316 661.734151,1703.089729 656.349869,1716.054715"/>
    <poly id="-59997#1" type="building" color="255,230,230" fill="1" layer="-1.00" shape="656.349869,1716.054715 673.690932,1723.194269 679.084643,1710.218316 661.734151,1703.089729 656.349869,1716.054715"/>