<?xml version="1.0" encoding="UTF-8"?>

<!-- Generated with SUMO Activity-Based Mobility Generator [https://github.com/lcodeca/SUMOActivityGen] -->

<routes xmlns:xsi="http://www.w3.org/2001/XMLSchema-instance" xsi:noNamespaceSchemaLocation="http://sumo.dlr.de/xsd/routes_file.xsd"> 
    <vehicle id="on-demand.0" type="on-demand" depart="0.0">
        <route edges="-62613#2"/>
        <stop lane="-62613#2_1" startPos="1.0" endPos="-1.0" triggered="person"/>
    </vehicle>
    <vehicle id="on-demand.1" type="on-demand" depart="0.0">
        <route edges="-61031#1"/>
        <stop lane="-61031#1_1" startPos="1.0" endPos="-1.0" triggered="person"/>
    </vehicle>
    <vehicle id="on-demand.2" type="on-demand" depart="0.0">
        <route edges="-61860#15"/>
        <stop lane="-61860#15_1" startPos="1.0" endPos="-1.0" triggered="person"/>
    </vehicle>
    <vehicle id="on-demand.3" type="on-demand" depart="0.0">
        <route edges="-60463#1"/>
        <stop lane="-60463#1_1" startPos="1.0" endPos="-1.0" triggered="person"/>
    </vehicle>
    <vehicle id="on-demand.4" type="on-demand" depart="0.0">
        <route edges="-61328#2"/>
        <stop lane="-61328#2_1" startPos="1.0" endPos="-1.0" triggered="person"/>
    </vehicle>
    <vehicle id="on-demand.5" type="on-demand" depart="0.0">
        <route edges="-63372#1"/>
        <stop lane="-63372#1_1" startPos="1.0" endPos="-1.0" triggered="person"/>
    </vehicle>
    <vehicle id="on-demand.6" type="on-demand" depart="0.0">
        <route edges="-61101#2"/>
        <stop lane="-61101#2_1" startPos="1.0" endPos="-1.0" triggered="person"/>
    </vehicle>
    <vehicle id="on-demand.7" type="on-demand" depart="0.0">
        <route edges="-61978"/>
        <stop lane="-61978_1" startPos="1.0" endPos="-1.0" triggered="person"/>
    </vehicle>
    <vehicle id="on-demand.8" type="on-demand" depart="0.0">
        <route edges="-60562#4"/>
        <stop lane="-60562#4_1" startPos="1.0" endPos="-1.0" triggered="person"/>
    </vehicle>
    <vehicle id="on-demand.9" type="on-demand" depart="0.0">
        <route edges="--63599#1"/>
        <stop lane="--63599#1_1" startPos="1.0" endPos="-1.0" triggered="person"/>
    </vehicle>
    <person id="-855_-855_5" type="pedestrian" depart="20780.48">
        <walk edges="--62682#2 --62682#0 --60782#2 -61393#1 -60619#1 -59986#0" arrivalPos="23.899377196273452"/>
        <stop lane="-59986#0_0" duration="30279.424507875403" actType="P-Work"/>
        <walk edges="-59986#0 --60619#1 -60619#2 -60721 --62682#2" arrivalPos="22.48175205920502"/>
        <stop lane="--62682#2_0" duration="1.0" actType="Home"/>
    </person>
    <person id="-832_-816_1" type="pedestrian" depart="21820.56">
        <walk edges="--63055#5 --63055#4 --63055#3 -60789#3 -62301#1 -61044#2 -61044#5 -61044#7 -61044#9 -61044#10 -61044#12 -60692#0 -59980#13 -61044#14 -61044#15 -61044#16 -61044#17 -61044#18 -61044#19 -61044#20 -63943#4 -62142#10 -62142#9 -62142#8" busStop="-228079"/>
        <ride busStop="-239417" lines="L13:0" intended="pt_bus_L13:0.15" depart="23663.0"/>
        <walk edges="-62902#1 -62902#2 --63217#0 --60260#1 -60260#0 --62862#0" arrivalPos="60.35341695372245"/>
        <stop lane="--62862#0_0" duration="25733.91160916072" actType="P-Work"/>
        <walk edges="--62862#0 -60260#0 -60260#1 -63217#0 -62902#2 -62902#1 -62902#0 -63039#3 -63039#2 -63039#1 -60208#1 -60208#0" busStop="-237070"/>
        <ride busStop="-226761" lines="L13:1" intended="pt_bus_L13:1.60" depart="50919.0"/>
        <walk edges="-62342#3 -62342#2 -62342#1 -63943#4 -61044#20 -61044#19 -61044#18 -61044#17 -61044#16 -61044#15 -61044#14 -59980#13 -60692#0 -59980#12 -59980#11 -61044#10 -61044#9 -61044#7 -61044#5 -61044#2 -62033#4 --63942#1 --63055#5" arrivalPos="97.94460016317082"/>
        <stop lane="--63055#5_0" duration="1.0" actType="Home"/>
    </person>
    <person id="-859_-832_0" type="pedestrian" depart="21909.21">
        <walk edges="-63905#0 -62913#2 -62913#1 -62913#0 -60392#1 -60695#17 -60695#16" busStop="-240850"/>
        <ride busStop="-232052" lines="T2:0" intended="pt_tram_T2:0.12" depart="22193.0"/>
        <walk edges="-61381#5 -61381#6 -61381#7 -59763 -60244#4 -60695#7 -63108#3 -63108#2 -63108#1 -63108#0 -60695#4 -61860#2 -61860#1" busStop="-235411"/>
        <walk edges="-63626#2" busStop="-246836"/>
        <ride busStop="-233071" lines="BW2:0" intended="pt_bus_BW2:0.14" depart="23034.0"/>
        <walk edges="-62790#2 -62790#3 -62654#0 -60024#1 -63375 -60108#0 -60108#1" busStop="-243870"/>
        <ride busStop="-239417" lines="L97B:0" intended="pt_bus_L97B:0.14" depart="23531.0"/>
        <walk edges="-62902#1 -62902#0 -63039#3 -63039#2 -63039#1 -60400#0 -63798#2 -63798#3 -63798#4 -63798#5 -60809#1 -60809#2 -60809#3 -60809#4 -60809#5 -60809#6 -60809#7 -63266#5 -61445 -63266#3 -63266#2" arrivalPos="11.154302460982214"/>
        <stop lane="-63266#2_0" duration="28007.91992394543" actType="P-Work"/>
        <walk edges="-63266#2 -63266#3 -61445 -63266#5 -60809#7 -60809#6 -60809#5 -60809#4 -60809#3 -60809#2 -60809#1 -63798#5 -63798#4 -63798#3 --62357#3 --62357#2 --62357#1 --62357#0 -60208#0" busStop="-237070"/>
        <ride busStop="-226761" lines="L13:1" intended="pt_bus_L13:1.66" depart="54519.0"/>
        <walk edges="-62342#3 -62342#2 -62342#1 -63943#4 -61044#20 -61044#19 -61044#18 -61044#17 -61044#16 -61044#15 -61044#14 -59980#13 -60692#0 -59980#12 -59980#11 -61044#10 -61044#9 -61044#7 -63905#0" arrivalPos="187.02723841665332"/>
        <stop lane="-63905#0_0" duration="1.0" actType="Home"/>
    </person>
    <person id="-832_-816_2" type="pedestrian" depart="22246.71">
        <walk edges="-60340#3 -60340#2 -60340#1 -60340#0 --60427#3 --60427#4 --60427#5 -63179#1 -63179#0 -61134 -62107#2 -62107#1 -62107#0 -63429#4 -63429#3 -63429#2 -63429#1 -63429#0 -60766#1 -60766#0 -60809#7 -60809#6 -60809#5 -60809#4 -60809#3 -60809#2 -60809#1 -63798#5 -63798#4 -63798#3 -63798#2 -62679#1 -63039#1 -63039#2 -63039#3 -62902#0 -62902#1 -62902#2 -62251 -61604#0 -61604#1 -62576 -62714#0 -60447 --60473#1 --62257" arrivalPos="23.814472632647792"/>
        <stop lane="--62257_0" duration="30005.410587894068" actType="P-Work"/>
        <walk edges="--62257 -60473#1 -61898 -62714#0 -62576 -61604#1 -61604#0 -62251 -62902#2 -62902#1 -62902#0 -63039#3 -63039#2 -63039#1 -62679#1 -63798#2 -63798#3 -63798#4 -63798#5 -60809#1 -60809#2 -60809#3 -60809#4 -60809#5 -60809#6 -60809#7 -60766#0 -60766#1 -63429#0 -63429#1 -63429#2 -63429#3 -63429#4 -62107#0 -62107#1 -61656#5 -63179#1 --60427#5 --60427#4 --60427#3 -60340#0 -60340#1 -60340#2 -60340#3" arrivalPos="17.70146999421665"/>
        <stop lane="-60340#3_0" duration="1.0" actType="Home"/>
    </person>
    <person id="-832_-816_0" type="pedestrian" depart="22332.51">
        <walk edges="-61711#1 -63429#4" busStop="-229200"/>
        <ride busStop="-236567" lines="T1:0" intended="pt_tram_T1:0.14" depart="22862.0"/>
        <walk edges="-59804#3 -59804#2 -59804#1 -59804#0 -60026#0 -61697#4 -61697#3 -61697#1 -61697#0 -60156#2 -60156#1 -60156#0" arrivalPos="16.764025891966977"/>
        <stop lane="-60156#0_0" duration="26670.134677201604" actType="P-Work"/>
        <walk edges="-60156#0 -60156#1 -60156#2 -61697#0 -61697#1 -61697#3 -61697#4 -61697#5 -62133#0 -62133#1 -62133#2 -62133#3 -62746" busStop="-230390"/>
        <ride busStop="-245754" lines="T1:1" intended="pt_tram_T1:1.61" depart="51097.0"/>
        <walk edges="-60158#1 -61711#1" arrivalPos="188.0518396638969"/>
        <stop lane="-61711#1_0" duration="1.0" actType="Home"/>
    </person>
    <person id="-832_-832_15" type="pedestrian" depart="22572.96">
        <walk edges="-63067#5 --62140#1 -61156#3 -63918#0 -63918#1 -63918#2 -62171#0 -62171#1 -62171#5 -62171#9 -62171#10 -62171#11 -62171#12 -62171#13 -62983#4 -60939#0 -60939#1 -60939#2 -61596#0 -61596#1 -61043#0 -61043#1 -61043#2 -61043#3" busStop="-228314"/>
        <ride busStop="-226761" lines="L13:1" intended="pt_bus_L13:1.15" depart="24090.0"/>
        <walk edges="-62342#3 -63987#2 -60461#4 -60640#7 -62656 -60640#2 -60292#0 --63381#5 -63939#0 -60611 -63939#2 -60754#0 -62493#0 -63892#2" busStop="-246836"/>
        <walk edges="-63626#3" busStop="-235411"/>
        <walk edges="-63424#9 -63424#10 -60699#14 -62646#4 -62646#3 -62646#2 -62646#1 -62646#0 -60699#11 -60244#4 -59763 -60699#9 -60699#7 -61170#4 -63968#0 -60699#5 -60699#4 -60699#3 -60699#2" busStop="-236631"/>
        <ride busStop="-239630" lines="T2:1" intended="pt_tram_T2:1.17" depart="25597.0"/>
        <walk edges="--63743#8 -62094#7 -62094#8 -60329#1 -60377 -61769#2 -61769#1 -62041 -60726#1 -60662#1 -60662#0 -61435#2 -60791 -62279#7 -62756#4 -62756#3 -62756#2 --61850 -60881" arrivalPos="17.71237678391614"/>
        <stop lane="-60881_0" duration="30294.604469779642" actType="P-Work"/>
        <walk edges="-60881 --61850 -62756#2 -61425#0 -62279#6 -62279#7 -60791 -61435#2 -60662#0 -60662#1 -60726#1 -62041 -61769#1 -61769#2 -60377 -60329#0 -62358#9 -62094#8 -62094#7 -62094#4" busStop="-246772"/>
        <ride busStop="-232052" lines="T2:0" intended="pt_tram_T2:0.73" depart="58708.0"/>
        <walk edges="-61381#5 -61381#6 -61381#7 -59763 -60244#4 -60695#7 -63108#3 -63108#2 -63108#1 -63108#0 -60695#4 -61860#2 -61860#1 -61860#0 -60296#4 -60296#3 -60296#2 -60296#1 -60296#0 -61321#0 -61321#1 -61114#1 -63246#3 -63246#2 -63246#1 -63246#0 -61043#8 -61043#7 -61043#6 -61043#5 -61043#4 -61043#3 -61043#2 -61043#1 -61043#0 -61596#1 -61596#0 -60939#2 -60939#1 -60939#0 -62983#4 -62171#13 -62171#12 -62171#11 -62171#10 -62171#9 -62171#5 -62171#1 -62171#0 -63918#2 -63918#1 -63918#0 -60158#1 -63067#5" arrivalPos="97.52760497659435"/>
        <stop lane="-63067#5_0" duration="1.0" actType="Home"/>
    </person>
    <person id="-859_-812_1" type="pedestrian" depart="22631.23">
        <walk edges="-63905#0 -62913#2 -62913#1 -62913#0 -60392#1 -60695#17 -60542#4 -60542#3 -63788#2 -60695#14 -60695#13 -63968#2 -60542#0 -60695#11 -60695#9 -60695#7 -63108#3 -63108#2 -63108#1 -63108#0 -60695#4 -61860#2 -61860#1" busStop="-235411"/>
        <walk edges="-63626#2" busStop="-246836"/>
        <walk edges="-63892#2 -63892#1 -63892#10 -60292#1 --63381#5 -63738#1 -61426 -63738#3 -60581#0 -60863#19 -60863#20 -61457#1 -63738#9 -60980 -63738#11 -63738#12 -63738#13 -62342#8 --61880 -62342#10 -62953#0 -61410#1 -63724 -60585#0 -60585#2 -62515#0 -62515#1 -61366#0 -61366#1 -60779#1 -60779#2" busStop="-248186"/>
        <walk edges="-63556#5 -64030#1 -60332#1 -63194#0 -63194#1 -63194#2" arrivalPos="50.15923972639207"/>
        <stop lane="-63194#2_0" duration="28923.41335465085" actType="P-Work"/>
        <walk edges="-63194#2 -63194#1 -63194#0 -60332#1 -64030#1 -63556#5" busStop="-248186"/>
        <walk edges="-60779#2 -60779#1 -61366#1 -61366#0 -62515#1 -64024#0 -63534 -61545#4 -60585#0 -63724 -61410#1 -62953#0 -62342#10 --61880 -62342#8 -63738#13 -63738#12 --62541#1 -61062#1 -61414#1 -61457#0 -63738#8 -63583 -63738#6 -63738#5 -62968#2 -61547#2 -61072#3 -61072#2 -61072#1 -60754#0 -62493#0 -63892#2" busStop="-246836"/>
        <walk edges="-63626#3" busStop="-235411"/>
        <walk edges="-63424#9 -63424#10 -60699#14 -62646#4 -62646#3 -62646#2 -62646#1 -62646#0 -60699#11 -60244#4 -59763 -60699#9 -60695#11 -60542#0 -60542#1 -60542#2 -60542#3 -60542#4 -60695#17 -60392#1 -62913#0 -62913#1 -62913#2 -63905#0" arrivalPos="15.013007780287406"/>
        <stop lane="-63905#0_0" duration="1.0" actType="Home"/>
    </person>
    <person id="-812_-859_0" type="pedestrian" depart="23755.33">
        <walk edges="-63955 -63998#2 -63998#1 -63998#0 -61083#2" busStop="-227070"/>
        <walk edges="-60688#4 -60688#3 -60688#2 -60688#0 -60779#4 -60779#3 -60779#2 -60779#1 -61366#1 -61366#0 -62515#1 -64024#0 -63534 -61545#4 -60585#0 -63724 -61410#1 -62953#0 -62342#10 --61880 -62342#8 -63738#13 -63738#12 --62541#1 -61062#1 -61414#1 -61457#0 -63738#8 -63583 -63738#6 -63738#5 -62968#2 -61547#2 -61072#3 -61072#2 -61072#1 -60754#0 -62493#0 -63892#2" busStop="-246836"/>
        <walk edges="-63626#3" busStop="-235411"/>
        <walk edges="-63424#9 -63424#10 -60699#14 -62646#4 -62646#3 -62646#2 -62646#1 -62646#0 -60699#11 -60244#4 -59763 -60699#9 -60695#11 -60542#0 -60542#1 -60542#2 -60542#3 -60542#4 -60695#17 -60392#1 -62913#0 -62913#1 -62913#2 -62913#3 -62913#4 -62913#5 --63154#0 --63055#0 --63055#1 --63055#2 --63055#3 -63055#4 --63942#1" arrivalPos="62.18355124812829"/>
        <stop lane="--63942#1_0" duration="26257.853337596476" actType="P-Work"/>
        <walk edges="--63942#1 -63055#4 -62546#2 -60789#3 -63055#2 -63055#1 -63055#0 -63154#0 -62913#5 -62913#4 -62913#3 -62913#2 -60858#2 -60392#2 -60392#1 -60695#17 -60542#4 -60542#3 -63788#2 -60695#14 -60695#13 -63968#2 -60542#0 -60695#11 -60695#9 -60695#7 -63108#3 -63108#2 -63108#1 -63108#0 -60695#4 -61860#2 -61860#1" busStop="-235411"/>
        <walk edges="-63626#2" busStop="-246836"/>
        <walk edges="-63892#2 -63892#1 -63892#10 -60292#1 --63381#5 -61547#2 -62968#2 -60581#0 -60863#19 -60863#20 -61457#1 -63738#9 -60980 -63738#11 -63738#12 -63738#13 -62342#8 --61880 -62342#10 -62953#0 -61410#1 -63724 -60585#0 -60585#2 -62515#0 -62515#1 -61366#0 -61366#1 -60779#1 -60779#2 -60779#3 -60779#4 -60688#0 -60688#2 -60688#3 -60688#4" busStop="-227070"/>
        <walk edges="--63988 -61083#2 -63998#0 -63998#1 -63998#2 -63955" arrivalPos="25.211989619450968"/>
        <stop lane="-63955_0" duration="1.0" actType="Home"/>
    </person>
    <person id="-832_-832_4" type="pedestrian" depart="23888.42">
        <walk edges="-60526#2 -60526#1 -61033#23 -61033#22 -61033#19 -61033#18 -61033#17 -61033#16 -59980#7 -59980#6 -59980#5 -61033#11 -61033#10 -61033#9 -61033#8 -61033#7 -61033#6 -61033#5 -61033#4 -61033#3 -61033#2 --61369 -63521#1 -63285 -61321#1 -61321#0 -63943#4 -61044#20 -61044#19 -61044#18 -61044#17 -61044#16 -61044#15 -61044#14 -59980#13 -60692#0 -59980#12 -59980#11 -61044#10 -61044#9 -61044#7 -61044#5 -61044#2 -62033#4 --63942#1 --63055#5" arrivalPos="59.4091663388469"/>
        <stop lane="--63055#5_0" duration="31541.62333908538" actType="P-Work"/>
        <walk edges="--63055#5 --63055#4 --63055#3 --63055#2 --63055#1 --63055#0 -63154#0 -62913#5 -62913#4 -62913#3 -62913#2 -62913#1 -62913#0 -60392#1 -60695#17 -60542#4 -60542#3 -60542#2 -60542#1 -60542#0 -60695#11 -60695#9 -60695#7 -63108#3 -63108#2 -63108#1 -63108#0 -60695#4 -61860#2 -61860#1 -61860#0 -60296#4 -60296#3 -60296#2 -60296#1 -60296#0 -61321#0 -61321#1 -63285 -63521#1 --61369 -61033#2 -61033#3 -59980#25 -59980#26 -59980#27 -59980#0 -59980#1 -59980#2 -59980#3 -59980#4 -59980#5 -59980#6 -59980#7 -61033#16 -61033#17 -61033#18 -61033#19 -61033#22 -61033#23 -60526#1 -60526#2" arrivalPos="88.26923457194185"/>
        <stop lane="-60526#2_0" duration="1.0" actType="Home"/>
    </person>
    <person id="-859_-832_1" type="pedestrian" depart="23939.37">
        <walk edges="-63940#3 -61927#0 -60244#1 -63879#6 -63879#7 -63879#8 -63879#9 -59734 -62268#8 -61860#6 -61860#5 -61860#4 -61860#2 -61860#1 -61860#0 -60296#4 -60296#3 -60296#2 -60296#1 -60296#0 -62142#10 -62142#9 -62142#8" busStop="-228079"/>
        <ride busStop="-239417" lines="L13:0" intended="pt_bus_L13:0.17" depart="24863.0"/>
        <walk edges="-62902#1 -62902#0 -63039#3 -63039#2 -63039#1 -60400#0 -63798#2 -63798#3 -63798#4 -63798#5 -60809#1 -60809#2 -60809#3 -60809#4 -60809#5 -60809#6 -60809#7 -63266#5 -61445 -63266#3 -63266#2" arrivalPos="29.952330852000635"/>
        <stop lane="-63266#2_0" duration="29631.786253673887" actType="P-Work"/>
        <walk edges="-63266#2 -63266#3 -61445 -63266#5 -60809#7 -60809#6 -60809#5 -60809#4 -60809#3 -60809#2 -60809#1 -63798#5 -63798#4 -63798#3 --62357#3 --62357#2 --62357#1 --62357#0 -60208#0" busStop="-237070"/>
        <ride busStop="-226761" lines="L13:1" intended="pt_bus_L13:1.71" depart="57519.0"/>
        <walk edges="-62342#3 -63987#2 -60461#4 -60640#7 -62656 -60640#2 -60292#0 -60292#1 -63892#10 -63892#1 -63892#2" busStop="-246836"/>
        <walk edges="-63626#2" busStop="-235411"/>
        <walk edges="-63424#9 -63424#10 -60699#14 -62646#4 -62646#3 -60704#1 -62154#0 -62154#1 -62154#2 -60244#3 -61952#2 -63940#3" arrivalPos="60.125814434454945"/>
        <stop lane="-63940#3_0" duration="1.0" actType="Home"/>
    </person>
    <person id="-832_-832_3" type="pedestrian" depart="23997.46">
        <walk edges="--60427#5 -63179#1 -61656#5 -62107#1 -62107#0 -63918#0 -63918#1 -63918#2 -62171#0 -62171#1 -62171#5 -62171#9 -62171#10 -62171#11 -62171#12 -62171#13 -62983#4 -60939#0 -60939#1 -60939#2 -61596#0 -61596#1 -61043#0 -61043#1 -61043#2 -61043#3 -61043#4 -61043#5 -61043#6 -61043#7 -61043#8 -63246#0 -63246#1 -63246#2" busStop="-237096"/>
        <ride busStop="-226761" lines="L13:1" intended="pt_bus_L13:1.18" depart="25956.0"/>
        <walk edges="-62342#3 -62342#2 -62342#1 -63943#4 -61044#20 -61044#19 -61044#18 -61044#17 -61044#16 -61044#15 -61044#14 -59980#13 -60692#0 -59980#12 -59980#11 -61044#10 -61044#9 -61044#7 -61044#5 -61044#2 -62033#4 --63942#1 --63055#5" arrivalPos="97.04725128908007"/>
        <stop lane="--63055#5_0" duration="26853.21359349409" actType="P-Work"/>
        <walk edges="--63055#5 --63055#4 --63055#3 --63055#2 --63055#1 --63055#0 -63154#0 -62913#5 -62913#4 -62913#3 -62913#2 -62913#1 -62913#0 -60392#1 -60695#17 -60542#4 -60542#3 -60542#2 -60542#1 -60542#0 -60695#11 -63131#2 -63131#1 -60695#7 -63108#3 -63108#2 -63108#1 -63108#0 -60695#4 -63424#10 -63424#9" busStop="-235411"/>
        <walk edges="-63626#3" busStop="-246836"/>
        <ride busStop="-233071" lines="BW2:0" intended="pt_bus_BW2:0.69" depart="56034.0"/>
        <walk edges="-60336#2 -60336#1 -60336#0 -61114#1 -63246#3 -63246#2 -63246#1 -63246#0 -61043#8 -61043#7 -61043#6 -61043#5 -61043#4 -61043#3 -61043#2 -61043#1 -61043#0 -61596#1 -61596#0 -60939#2 -60939#1 -60939#0 -62983#4 -62171#13 -62171#12 -62171#11 -62171#10 -62171#9 -62171#5 -62171#1 -62171#0 -63918#2 -63918#1 -63918#0 -62107#0 -62107#1 -62107#2 -61134 -63179#0 -63179#1 --60427#5" arrivalPos="132.61649108697077"/>
        <stop lane="--60427#5_0" duration="1.0" actType="Home"/>
    </person>
    <person id="-832_-832_18" type="pedestrian" depart="24109.46">
        <ride from="-62131#3" to="-63429#4" arrivalPos="49.28802911434471" lines="taxi"/>
        <stop lane="-63429#4_0" duration="31492.87976068053" actType="P-Work"/>
        <ride from="-63429#4" to="-62131#3" arrivalPos="36.78492931094766" lines="taxi"/>
        <stop lane="-62131#3_0" duration="1.0" actType="Home"/>
    </person>
    <person id="-855_-820_0" type="pedestrian" depart="24201.27">
        <walk edges="-61358 --63267#8 --61393#4 --61393#5 --61393#6 --63937#0 --63937#1 --63937#2 --63937#3 --63073#1 --61874#1 --61874#2 --61874#4 --61874#5 --63685#0 --63685#2 --63685#4 --63685#5 --61390#4 --63520#0 --63520#1 -60336#2 -60336#1 -60336#0 -61321#1 -61321#0 -62342#1 -62342#2 --63381#7 --63381#6 --63381#5 -63738#1 -63738#2 -63738#3 -63738#5 -63738#6 -63738#7 -63738#8 -63738#9 -60980 -63738#11 -63738#12 -63738#13 -62342#8 -62342#9 -62342#10 -62953#0 -61410#1 -63724 -60585#0 -60585#2 -62515#0 -62515#1 -61366#0 -61366#1 -60779#1 -60779#2" busStop="-248186"/>
        <walk edges="-63556#5 -63556#6 -60332#0 -60332#1 -63194#0 -63194#1 -63194#2 -63194#4 -63194#5 -63194#6 -63194#7 -63194#8 -63194#10 -63194#11 -63194#12 -63194#13 -63194#14 -63194#15 -63194#17 -63194#18 -63194#19 -60276#0 -60276#1 -60276#2 -60276#3 -60276#4 -60276#5 -60276#6 -60276#7 -60276#8 -60276#9 -60276#10 -60276#11 -62456 -61497#0 -61497#1 -63507#2 -59971 -62025#0 -62025#1 -62222#11 -62222#12 -63931#0 -63931#1 -60718#0 -60718#1 -61972 -60854 -61259 --60465#3 -61986#5 --61589#1 --61589#0 -59914#1 -62061#3 -62061#4 -63684#0" arrivalPos="23.025755807881595"/>
        <stop lane="-63684#0_0" duration="25346.211812461726" actType="P-Work"/>
        <walk edges="-63684#0 -62061#4 -62061#3 -59914#1 -59914#0 --60465#0 --60465#1 --60465#3 -61259 -60854 -61972 -60718#1 -60718#0 -63931#1 -63931#0 -62222#12 -62222#11 -62025#1 -62025#0 -59971 -63507#2 -61497#1 -61497#0 -62456 -60276#11 -60276#10 -60276#9 -60276#8 -60276#7 -60276#6 -60276#5 -60276#4 -60276#3 -60276#2 -60276#1 -60276#0 -63194#19 -63194#18 -63194#17 -63194#15 -63194#14 -63194#13 -63194#12 -63194#11 -63194#10 -63194#8 -63194#7 -63194#6 -63194#5 -63194#4 -63194#2 -63194#1 -63194#0 -60332#1 -64030#1 -63556#5" busStop="-248186"/>
        <walk edges="-60779#2 -60779#1 -61366#1 -61366#0 -62515#1 -62515#0 -60585#2 -60585#0 -63724 -61410#1 -62953#0 -62342#10 -62342#9 -62342#8 -63738#13 -63738#12 -63738#11 -63738#10 -63738#9 -63738#8 -63738#7 -63738#6 -63738#5 -62968#2 -61547#2 --63381#5 --63381#6 --63381#7 -62342#2 -62342#1 -61321#0 -61321#1 -60336#0 -60336#1 -60336#2 --63520#1 -63520#0 --61390#4 --63685#5 --63685#4 --63685#2 --63685#0 -61874#5 -61874#4 -61874#2 -61874#1 --63073#1 --63937#3 --63937#2 --63937#1 --63937#0 --61393#6 --61393#5 --61393#4 --63267#8 -61358" arrivalPos="11.336045233181178"/>
        <stop lane="-61358_0" duration="1.0" actType="Home"/>
    </person>
    <person id="-832_-859_2" type="pedestrian" depart="24647.73">
        <walk edges="--60764 --60427#4 --60427#5 -63179#1 -61656#5 -62107#1 -62107#0 -63918#0 -63918#1 -63918#2 -62171#0 -62171#1 -62171#5 -62171#9 -62171#10 -62171#11 -62171#12 -62171#13 -62983#4 -60939#0 -60939#1 -60939#2 -61596#0 -61596#1 -61043#0 -61043#1 -61043#2 -61043#3 -61043#4 -61043#5 -61043#6 -61043#7 -61043#8 -63246#0 -63246#1 -63246#2 -63246#3 -61114#1 -61321#1 -61321#0 -63943#4 -61044#20 -61044#19 -61044#18 -61044#17 -59980#16 -59980#15 -59980#14 -60692#0 -61381#15 -61381#14" arrivalPos="29.494307921505744"/>
        <stop lane="-61381#14_0" duration="28809.43865949273" actType="P-Work"/>
        <walk edges="-61381#14 -61381#15 -60692#0 -59980#13 -61044#14 -61044#15 -61044#16 -61044#17 -61044#18 -61044#19 -61044#20 -63943#4 -61321#0 -61321#1 -61114#1 -63246#3 -63246#2 -63246#1 -63246#0 -61043#8 -61043#7 -61043#6 -61043#5 -61043#4 -61043#3 -61043#2 -61043#1 -61043#0 -61596#1 -61596#0 -60939#2 -60939#1 -60939#0 -62983#4 -62171#13 -62171#12 -62171#11 -62171#10 -62171#9 -62171#5 -62171#1 -62171#0 -63918#2 -63918#1 -63918#0 -62107#0 -62107#1 -61656#5 -63179#1 --60427#5 --60427#4 --60764" arrivalPos="73.58410071024309"/>
        <stop lane="--60764_0" duration="1.0" actType="Home"/>
    </person>
    <person id="-859_-812_0" type="pedestrian" depart="24713.28">
        <walk edges="-63940#1 -63879#5 -60244#0" busStop="-235704"/>
        <walk edges="-63590#8" busStop="-238909"/>
        <walk edges="-63678#0 -63678#1 --62628#0 --62628#1 --62628#2 -61158#4 -60863#11" busStop="-229615"/>
        <walk edges="-60863#3" busStop="-243481"/>
        <ride busStop="-248186" lines="T2:0" intended="pt_tram_T2:0.17" depart="25507.0"/>
        <walk edges="-63556#5 -64030#1 -60332#1 -63194#0 -61147#3" arrivalPos="11.14758297739153"/>
        <stop lane="-61147#3_0" duration="29856.342768840488" actType="P-Work"/>
        <walk edges="-61147#3 --61147#1 -62536" busStop="-236508"/>
        <ride busStop="-242965" lines="T2:1" intended="pt_tram_T2:1.68" depart="55833.0"/>
        <walk edges="-61381#5 -61771#0 -63940#1" arrivalPos="59.96779528614821"/>
        <stop lane="-63940#1_0" duration="1.0" actType="Home"/>
    </person>
    <person id="-832_-855_1" type="pedestrian" depart="24892.31">
        <walk edges="--63055#5 --63055#4 --63055#3 --63055#2 --63055#1 --63055#0 -63154#1 -61044#5 -61044#7 -61044#9 -61044#10 -59980#11 -59980#12 -60692#0 -59980#14 -59980#15 -59980#16 -59980#17 -59980#18 -59980#19 -59980#20 -63943#4 -62142#10 --62978#1 -61427#0 --62856#0 --59793 --59964#3 -59964#4 --61920#6 --61920#5 --61920#4 --61920#3 --61920#2 --61920#1 -63057#1 -63057#2 -63057#3 --61379#0 --61841#2 --61841#1 --61841#0 -61101#1 -61569#1" arrivalPos="18.305549201804062"/>
        <stop lane="-61569#1_0" duration="27288.500684074603" actType="P-Work"/>
        <walk edges="-61569#1 --61101#1 --61101#2 --61101#3 --61101#4 -63253#0 -63253#1 -62142#5 -62142#8 -62142#9 -62142#10 -63943#4 -61044#20 -61044#19 -61044#18 -61044#17 -61044#16 -61044#15 -61044#14 -59980#13 -60692#0 -59980#12 -59980#11 -61044#10 -61044#9 -61044#7 -61044#5 -61044#2 -62033#4 --63942#1 --63055#5" arrivalPos="52.94774626554115"/>
        <stop lane="--63055#5_0" duration="1.0" actType="Home"/>
    </person>
    <vehicle id="-832_-832_23_tr" type="passenger" depart="triggered">
        <route edges="-60526#2 -60526#4 -63179#11 -61435#0 -61435#1 -61435#2 -63142 -61250 -62088#0 -61760#0 -61760#1 -61760#2 -62715#0 -62715#1 -62715#2 -62715#3 -62715#4 -62715#5 -62715#6 -63789#0 -63789#1 -63789#2 -60699#0 -60699#1 -60699#2 -60699#3 -60699#4 -60699#5 -60699#6 -60699#7 -60699#9 -60699#11 -60699#12 -60699#13 -60699#14 -61072#1 -61072#2 -61072#3 --63381#3 --63381#2 --63381#1 -63723 -62188#2 -63590#9 -63590#10 -63590#11 -63590#12 -60695#4 -60695#5 -60695#6 -60695#7 -61381#11 -61381#12 -61381#13 -61381#14 -61381#15 -61033#14 -61033#16 -61033#17 -61033#18 -61033#19 -61033#22 -61033#23 -60526#1 -60526#2"/>
        <stop parkingArea="-227364" triggered="true" expected="-832_-832_23"/>
        <stop lane="-60526#2_1" duration="1.0"/>
    </vehicle>
    <person id="-832_-832_23" type="pedestrian" depart="25144.8">
        <ride from="-60526#2" to="--63381#3" arrivalPos="97.95" lines="-832_-832_23_tr"/>
        <walk edges="--63381#3 --63381#5 --63381#6 --63381#7 -62342#2 -62342#1 -61321#0 -61321#1 -61114#1 -63246#3 -63246#2 -63246#1 -63246#0 -61043#8 -61043#7 -61043#6 -61043#5 -61043#4 -61043#3 -61043#2 -61043#1 -61043#0 -61596#1 -61596#0 -60939#2 -60939#1 -60939#0 -62983#4 -62171#13 -62171#12 -62171#11 -62171#10 -62171#9 -62171#5 -62171#1 -62171#0 -63918#2 -63918#1 -63918#0 -64014#1" arrivalPos="220.93"/>
        <stop lane="-64014#1_0" duration="28357.6624846453" actType="P-Work"/>
        <walk edges="-64014#1 -64014#0 -63868#1 -59929#2 -61656#3 -63173#6 -63173#5 -63173#4 -60526#4 -60526#2 -60526#1 -61033#23 -61033#22 -61033#19 -61033#18 -61033#17 -61033#16 -59980#7 -59980#6 -59980#5 -61033#11 -61033#10 -61033#9 -61033#8 -61033#7 -61033#6 -61033#5 -61033#4 -61033#3 -61033#2 --61369 -63521#1 -63285 -61321#1 -61321#0 -62342#1 -62164#1 -63892#8 -60640#0 --63381#6 --63381#5 --63381#3" arrivalPos="97.95"/>
        <ride from="--63381#3" to="-60526#2" arrivalPos="33.84322951003595" lines="-832_-832_23_tr"/>
        <stop lane="-60526#2_0" duration="1.0" actType="Home"/>
    </person>
    <person id="-855_-859_0" type="pedestrian" depart="25218.72">
        <ride from="-60502#1" to="-60695#12" arrivalPos="10.815693475224606" lines="taxi"/>
        <stop lane="-60695#12_0" duration="29333.016498716235" actType="P-Work"/>
        <ride from="-60695#12" to="-60502#1" arrivalPos="45.088339687078765" lines="taxi"/>
        <stop lane="-60502#1_0" duration="1.0" actType="Home"/>
    </person>
    <person id="-855_-859_1" type="pedestrian" depart="25232.33">
        <walk edges="--63790 -60562#1 -60562#2" busStop="-226687"/>
        <walk edges="-61972 -60718#1 -60718#0 -63931#1 -63931#0 -62222#12 -62222#11 -62025#1 -62025#0 -59971 -63507#2 -61497#1 -61497#0 -62456 -60276#11 -60276#10 -60276#9 -60276#8 -60276#7 -60276#6 -60276#5 -60276#4 -60276#3 -60276#2 -60276#1 -60276#0 -63194#19 -63194#18 -63194#17 -63194#15 -63194#14 -63194#13 -63194#12 -63194#11 -63194#10 -63194#8 -63194#7 -63194#6 -63194#5 -63194#4 -63194#2 -63194#1 -63194#0 -60332#1 -64030#1 -63556#5" busStop="-248186"/>
        <walk edges="-60779#2 -60779#1 -61366#1 -61366#0 -62515#1 -64024#0 -63534 -61545#4 -60585#0 -63724 -61410#1 -62953#0 -62342#10 --61880 -62342#8 -63738#13 -63738#12 -62541#1 -61062#1 -61414#1 -61457#0 -63738#8 -63583 -63738#6 -63738#5 -63738#3 -63738#2 -63738#1 --63381#3" arrivalPos="44.708445547103615"/>
        <stop lane="--63381#3_0" duration="27355.900915401086" actType="P-Work"/>
        <walk edges="--63381#3 -63738#1 -63738#2 -63738#3 -63738#5 -63738#6 -63738#7 -63738#8 -63738#9 -60980 -63738#11 -63738#12 -63738#13 -62342#8 -62342#9 -62342#10 -62953#0 -61410#1 -63724 -60585#0 -60585#2 -62515#0 -62515#1 -61366#0 -61366#1 -60779#1 -60779#2" busStop="-248186"/>
        <walk edges="-63556#5 -63556#6 -60332#0 -60332#1 -63194#0 -63194#1 -63194#2 -63194#4 -63194#5 -63194#6 -63194#7 -63194#8 -63194#10 -63194#11 -63194#12 -63194#13 -63194#14 -63194#15 -63194#17 -63194#18 -63194#19 -60276#0 -60276#1 -60276#2 -60276#3 -60276#4 -60276#5 -60276#6 -60276#7 -60276#8 -60276#9 -60276#10 -60276#11 -62456 -61497#0 -61497#1 -63507#2 -59971 -62025#0 -62025#1 -62222#11 -62222#12 -63931#0 -63931#1 -60718#0 -60718#1 -61972" busStop="-239853"/>
        <walk edges="--60100#6 --60100#5 --63790" arrivalPos="55.800089558638874"/>
        <stop lane="--63790_0" duration="1.0" actType="Home"/>
    </person>
    <person id="-832_-832_17" type="pedestrian" depart="25705.29">
        <walk edges="--64000 -62131#4 -59804#3" busStop="-230390"/>
        <ride busStop="-245754" lines="T1:1" intended="pt_tram_T1:1.19" depart="25897.0"/>
        <walk edges="-60158#1 -62107#0 -62107#1 -61656#5 -63179#1 --60427#5 --60427#4" arrivalPos="13.800408837009321"/>
        <stop lane="--60427#4_0" duration="30365.290656190187" actType="P-Work"/>
        <walk edges="--60427#4 --60427#5 -63179#1 -63179#0 -61134 -62107#2 -62107#1 -62107#0 -63429#4" busStop="-229200"/>
        <ride busStop="-236567" lines="T1:0" intended="pt_tram_T1:0.73" depart="58262.0"/>
        <walk edges="-59804#3 -62131#4 --64000" arrivalPos="24.730673445615917"/>
        <stop lane="--64000_0" duration="1.0" actType="Home"/>
    </person>
    <person id="-832_-820_0" type="pedestrian" depart="25807.8">
        <walk edges="--61976#0 -60165 --62997#1 -64076#1 -64076#0 --61256#0 -61981#1 -60809#7 -60809#6 -60809#5 -60809#4 -60809#3 -60809#2 -60809#1 -63798#5 -63798#4 -63798#3 -63798#2 --59762#0 -60446#3 -60446#2 --63771#11 --63771#10 --63771#9 --63771#8 --63771#7 --63771#6 --63302#1 --59901#2 --59901#1 --59901#0 -60411#4 -60411#5 -60411#6 --60411#7" arrivalPos="23.92864698866462"/>