<?xml version="1.0" encoding="UTF-8"?>

<!-- generated on 2025-08-20 02:29:31.361096 by scenarioFromOSM.py UNKNOWN
  options: <doubleminus>osm H2ST8.osm <doubleminus>out H2ST8C <doubleminus>population 100 <doubleminus>density 30 <doubleminus>admin-level 10 <doubleminus>from-step 1
-->

<tazs xmlns:xsi="http://www.w3.org/2001/XMLSchema-instance" xsi:noNamespaceSchemaLocation="http://sumo.dlr.de/xsd/taz_file.xsd">
    <!-- id="-812" name="Hay Hassani nord" -->
    <taz id="-812" edges="--59907#4 -63998#3 -62798 --62707#1 -61971#0 --61456#0 --63215#0 -61743#2 -62940#1 --63215#1 -61694 --60771#1 --62878#3 --59907#2 -62641#0 --63708 --63005#0 -62999#2 -63979#0 63260#1 --62233#0 -62057#15 -62587#1 --62236#11 -64011#1 -62421#1 --61405#1 -61083#12 -59737 --60219#4 -63380 -61829#2 --62057#9 -63265#1 --63044#0 --63688#0 --61803#1 -61335 --61700#0 -61637#0 -62309#6 -62261#3 -62894#2 -60466#1 -62161#3 --60225#2 --62236#7 -61050#2 -62515#0 -60463#0 --60765 --61478 -62320#3 -62549 -60030#0 --61863#4 --61723#3 -60910#0 --61790 -60737 --61154 -63877#10 -62381 --59813#1 -60744#1 --60109 --61219#4 -64024#1 -62325#4 --61109#0 -61688#0 --60877#3 -63428#4 -63877#4 -60093#2 -63305#0 --63721#1 -63740#1 -61700#1 --62483 -61723#2 -60250 -63330#0 --64008#0 --60489#0 --61564#8 -60454#2 -62228 --61561#0 -62298 --62530 --63441#0 -63908#0 --61493 --62236#8 -60346#6 -60597#4 -61801#2 -63194#0 --61838#0 --62325#1 --61869#0 --62833#4 -63227#2 -62231 -63985#0 -59957 -62536 -60597#5 -62665#3 --63781 -63194#4 -63556#6 --60910#1 -60424#0 --61863#2 -63163#3 --60708#1 -60233#0 -61083#3 -63714#1 --63998#6 -64075 --61408#0 -63979#2 -62859 -62855#1 --63794 --60778#0 --60903 --61971#0 --63044#2 --61863#1 --62859 --63005#1 -61840#0 -61863#3 --60348 --63877#3 --63736#1 -59713 -61463#1 --62434#2 -61963 -60093#1 -61594#1 -60175#1 -62307 -61046#2 --63642 -61857 -62236#7 -61441#1 -63620#1 -61444 --61576#4 --63346#1 --60896#0 --61900 -62384 --63205 --64049#13 -62169#0 -63215#4 -62289#7 -61376 --61827#1 --61517#1 -61990#1 -62632#47 -62169#1 -64066#0 --63383#4 --63808 --64052#1 --60305#2 --62057#0 -63194#1 --61963 -60305#1 --60597#8 -61801#1 --61349#0 --62289#4 --60597#3 -62425#0 --59751#2 --62032#1 --62984#3 -60276#4 -62894#3 --60215 -63265#0 -60121 -64064#0 62632#48 -62336 -63163#0 --61936#0 --62865 --61219#2 -62129#0 --63985#0 --61958#1 -60591 -62661 -60449#0 -61743#1 -59720 --63985#2 -62999#0 63260#6 --60233#9 --62148#2 --61140 -59751#1 -63347#0 --61635 --62281#0 --62320#3 --60552#1 -61543#3 --63163#8 --61374#1 --60463#0 -63591#3 --62189 -63814#1 --61801#0 -62389#0 --61527#2 -62182 -60281 -62197#2 -62663#0 -60995#0 --62425#2 -61463#0 --61763#0 -61302#1 --63562#0 -63814#0 --60167 --61576#5 --60445 -62773#1 --62309#2 -63702 --61279#1 -61838#1 --61736#0 -59789 --59877#2 -61722 --61637#0 --59921#0 -63056#0 --62661 -60199#1 --61328#3 --59798#4 -63184#1 --63985#1 --61723#0 -63433 -63472#4 --64011#0 --61919#1 -62309#1 --63359#2 -60861#1 --63077#1 -63289 -64049#8 -59779 --60489#2 --63699 --60233#2 -63005#0 --61432#6 --62057#10 --61743#4 -60199#3 -62057#5 -61083#13 -62909 --61919#0 -60877#3 -61948#2 -62219#0 --61412#1 -59861#0 -63837#1 --60873 --60093#0 --62289#1 -63428#0 -60723 -60861#0 -63199#1 --62844 -61639#1 -62236#6 --63444#0 --61310#0 -61083#10 -64047 --61328#2 --59968#1 -63194#5 --63194#5 --62439 --62698 -61458#1 -62984#3 -60651 --63077#3 -63485#0 --62940#1 -63989#5 -61723#6 -61979#3 --62878#0 --60466#0 -61700#2 -62192#1 --63163#7 --62057#7 -64049#0 -63200#0 -60552#0 --61155 --62192#1 --61857 --63155#0 -63428#7 --61400#1 -61882#2 -62057#13 -61366#1 -60152#1 --62999#0 -61594#0 -63260#10 --60972 --60362#0 -63877#9 --63625#1 --59877#1 -62596 --62389#2 -61721#0 -60391#4 -63437#4 -61527#1 --63163#5 --61564#5 -61164#0 -63998#0 --60415 --62445#1 -60861#2 --64064#1 --62658 -63906 -63260#4 -63688#0 -59801 --62240#0 --63383#1 -62434#2 -63184#2 -61838#0 -60823 --60333#0 -62603 --60552#7 -61408#0 --61763#1 -63877#2 --60597#5 -62309#17 -61863#5 -62445#0 --60093#1 --60382#0 -63398#1 --62032#0 --63199#0 --63620#1 --62309#17 --60894#0 --61218 --63330#1 --63163#6 --63456 62632#51 --59751#1 --61458#1 --60539#0 --63714#1 -60904#0 --62236#2 -63227#3 --61334#2 -59907#6 -62852#4 -62960 -59798#1 --60597#6 -64009#2 --62281#1 --64011#6 -63721#1 --61374#0 -63444#0 -63163#2 -60109 -61735#1 --61147#0 --61808 --62687#1 -62161#5 --60904#0 -60552#3 -61637#1 -59802#0 -60225#2 -61840#2 -60597#8 --62177 -63428#3 -62984#2 -59837#1 -63979#1 -60232 -59798#0 -63194#11 --63661#0 -62632#53 -61936#0 -61564#5 --61180#1 -60539#1 -61957#1 -60778#2 -63615 -64011#0 --63383#3 --61736#1 --60346#4 -61690 -62286 --61594#1 -64049#10 --61046#2 --59909#0 --64052#0 --60771#2 --62325#2 -61763#1 --61203 -64049#13 --60259 --61210#3 --60605 --60633 --60552#6 -61400#1 -62137 --60469 --62999#3 -62665#4 --62137 -63347#1 --63714#0 -60233#1 -63044#3 --60346#5 -63441#0 -61210#3 -62533#2 --61735#1 --59907#5 -63998#6 --60904#1 -63163#7 -61925 -62389#2 --60534 -60509 -62707#1 -60807 --60233#0 -63044#4 -60283#0 -61721#1 -60333#1 -60728 --63998#2 -61334#0 --59861#0 -63428#1 --59798#3 -62289#4 -62724#1 -61328#1 -61456#1 -63642 -61576#5 -63191 -62940#3 -64011#10 --59861#1 --60391#3 -60907 --61396 -61955#0 --64011#9 --64011#2 --59907#6 --62057#15 -60276#0 --60152#1 -59877#3 -61803#0 -61328#3 --63989#0 -62242#1 -62057#12 -61564#7 --62833#3 -61943 -62632#46 -64011#2 -61527#0 --62072 --62169#0 --63721#0 -60512#2 --60362#1 -62151 -63714#0 --63496#1 -63852#0 --62445#0 --60962 -62870 -62148#3 -64049#5 --63740#1 --62509#0 -59751#0 --62940#0 -61415 --60175#3 --63163#4 --61936#3 -60289 -61696 --60773#1 -61869#1 -61517#1 --61409#1 -62916 -63227#4 -61109#0 -63398#5 --60708#0 --61840#2 --61210#0 63260#8 -62289#5 -61279#1 --61698#2 -61328#0 --64009#3 --63509 -62161#4 -63044#1 --60030#3 -61576#2 --63877#12 -62707#0 --61180#0 --61050#2 --62717 -63383#2 -60904#1 --63637#2 --61773 --63347#1 -64009#3 -63886 -62773#0 --63265#0 -62894#0 -61564#3 -62673 -63194#7 --61500#0 --62421#1 --61527#1 --64077#0 -63186#0 --60199#2 -61863#2 -62325#2 -60219#1 62632#52 -61144#1 --63938#1 --62098 -60927 --63761#1 --60931 --59907#0 --59801 -63496#1 --62057#14 -60276#11 --63194#8 --61943 -60877#0 --63472#2 -64008#0 --62839 -63044#0 --62596 -60972 -61543#2 --60152#0 --63435#0 -64049#6 --61719#0 -60901 -60549#0 -63163#10 -63163#4 -63947#0 --62909 -61979#2 --63019#0 -62434#3 -63359#0 -63496#0 -60041#1 --60199#3 -62106#2 -61543#4 -63588 --60382#2 -63077#3 -63998#2 --60041#0 -61870 --64049#9 -63194#10 -63437#3 -60073#1 -59837#2 -62197#1 -63509 -63938#0 --61302#0 -62320#0 -62687#2 --61050#1 --62984#0 --62687#2 -62833#5 -63536 --62309#11 --63383#2 --63372#0 --60121 -63383#5 -61829#1 -63260#5 -62349 -61947 -63155#0 --61527#3 -62309#7 --61209#1 -62309#11 --61723#1 -59837#3 -60940 --63441#1 -60597#1 -59753 --63347#2 -61046#0 -62861 --63702 -61147#0 --62309#16 -62632#44 -59944 --60778#1 --62261#2 -61979#0 --61472 --64011#4 --63877#8 -61024 -63946 -60283#1 --62309#6 --61050#0 --62043#0 -60860 -61155 --62182 --63908#2 --62472#1 --60778#4 --62374#2 -61083#7 -62236#11 --63979#2 -61799 63260#7 --62421#0 -61534 --62057#2 -61432#2 --63330#2 -61083#2 --62053 -62912 -60769#0 --60463#1 --64064#0 -63063#0 --63359#3 -61219#7 -63215#2 60444 --64052#2 -61281#0 -60713#5 --61415 --64011#7 -62309#3 --60424#1 -61141#1 -62309#2 -61349#0 --60861#0 -63637#0 --62325#4 --63998#8 --61334#1 --61778 -62240#0 --63191 -60259 --60346#1 -62965#1 -63194#12 --59798#2 --63485#0 -60779#1 -61517#0 --62289#7 -62632#52 --63383#0 -60219#4 --63077#4 -60896#0 -62057#9 --63433 -60779#0 --64077#2 -62999#1 -61083#5 -63989#2 -61900 -60149#1 62632#49 --60346#3 -60454#1 -59907#3 -62289#1 --62549 --64055 --61979#1 --62960 --60333#1 --60454#2 --62434#4 -61723#1 -63989#3 -60597#9 -62121#0 --60457#0 --61458#0 --61376 --61979#0 -61698#1 -62161#0 --61432#8 -62236#3 --63063#1 --59729 --60552#2 --61829#0 -60779#3 -61432#7 --60731 -60691 -63161 -63556#4 -63781 -61334#2 --63305#1 -62281#1 -62071 --60910#0 --60073#1 -63472#0 -60857#0 -62177 --60281 -60184 --62320#2 -60805 -63625#1 --62242#0 -63215#1 --63005#2 -62942 -62233#1 --60597#1 -62587#0 --62421#2 --61831 --63044#3 -59907#4 -61432#0 -61576#1 -60391#0 --60346#2 -62325#5 -61311 -60489#0 -62999#4 --61564#1 --61723#6 --62240#1 --62965#0 -60633 -59802#1 --63979#1 -61396 -63437#1 --62228 --63289 -62374#2 --63359#0 --61287#1 --59907#1 -62261#0 --62472#2 -61405#2 -61936#2 --63495 -63480 -63877#0 -63956 -60020 --62887 --63383#5 -62509#0 -63194#18 --63472#1 -62510 -60233#10 -61493 -61958#0 -62530 -62671 --61046#0 --62121#0 --63908#0 -60466#0 -62852#2 -60778#1 -60152#0 --61979#3 -61050#1 --63877#5 -61083#1 --60597#0 -63330#2 -60093#0 -62434#0 --62307 --62071 -63797#0 -61923 -62057#10 --62233#1 --61743#3 -62865 -61957#0 -61561#0 -62887 -60041#0 -61366#0 --61281#1 -62878#3 -61219#0 -64011#9 -63556#2 -63877#6 -62309#14 --63989#5 --60199#0 --61328#1 --61698#1 --61743#1 -61083#6 -60489#2 -59798#2 --62219#1 --61863#0 --62057#11 --63194#17 --63416#2 --60449#0 -63330#1 -63556#3 -64077#2 -61576#4 --63877#0 -60233#7 --61144#0 -60215 -60469 -62043#0 --63330#3 --63761#0 --59907#3 --61219#7 -61736#1 --60457#2 -60597#3 --62336 -59798#3 -61219#4 --61328#0 --61869#1 -60399 --62916 --59921#2 --62443 -62261#2 --62231 -64064#1 -61083#8 -61958#1 -62512#1 -61564#0 --61432#3 -61219#8 --60877#0 -61458#0 --62673 --62833#1 63260#4 -61863#1 -61432#5 --63163#10 -63056#1 --63814#1 --63877#11 -62515#1 -63699 --63227#2 -63437#2 -64049#9 -61778 --61637#2 -60813 -60771#1 --63989#9 --62641#4 --61723#4 -59757 -62665#2 --63035 -63077#0 -62894#1 -61561#1 -63472#1 --62192#0 -59861#1 -60276#1 --64011#1 --62129#1 63260#9 --60219#5 -63732 -62421#0 -61527#3 --63989#3 --62169#1 -62320#2 --62878#4 --60552#9 --61527#0 --61486#0 --59960#1 --61936#2 --61722 -62687#0 --62798 -63877#11 --62512#0 --62472#3 -62013#1 -62632#51 --60489#1 -61803#1 -60713#3 --59877#5 -61412#1 -63163#5 -61180#0 --62434#0 -62236#12 --63025 --62289#5 -62374#1 -63761#0 --63444#1 -63077#5 63260#5 --64011#10 --64064#2 -63444#1 -62833#0 --62148#0 -62032#1 -59729 --61803#3 --63428#3 -63194#8 -63947#1 --60250 -61637#2 -63620#0 -60346#1 -60688#3 --60778#2 -63260#7 -60233#5 -61193 --62940#3 --63428#2 -63200#1 --62325#0 --60800#1 --60775#1 -63761#1 --61690 -63428#2 --60857#2 -62289#3 --61863#5 -60585#2 --63998#3 -62833#4 --62894#5 --61870 -63562#0 -60688#0 --63721#2 -63260#6 -62148#2 --63329 -63989#4 --62325#3 --61310#2 -59968#0 --62289#6 --60877#2 -61472 -61144#0 -61287#0 -61310#2 --60233#10 -62236#13 --60642 --60067 -63005#1 -60552#9 --62234 --61405#0 -62529#0 -59877#1 -62309#8 -64009#1 --59937 --62309#15 -62587#2 -63989#6 --63946 -61936#3 --60314 --61639#0 --61500#2 -63383#3 --60823 -62309#15 -62242#0 --63540 --63175#0 -62053 -60962 -63359#3 -61400#0 --60391#0 --63194#1 -62472#4 -60588#0 --59720 -63063#1 --63989#8 -61164#1 -63998#7 -63155#1 --63877#6 -60391#2 --60552#3 --61147#3 -61543#1 -61083#11 -64064#2 -61203 -62389#3 --63591#3 --62861 -62443 -63359#1 --60454#1 --61749#1 -62516 -62878#0 -60534 -63487 --61688#1 -61985 --62057#12 --62363 -60552#2 -62632#48 -63051 -63163#6 --62832#3 -61545#4 -62852#3 -63998#1 -63797#1 --63194#12 -63591#2 --62057#3 -59837#0 -60346#0 -61955#1 -62833#1 -60995#1 --62068 -61827#2 -62817 --59773 --62894#4 --63215#3 -64049#3 -62434#1 -62836#2 --63194#0 -60233#2 -61840#1 -64011#7 --64049#5 -62043#2 -61639#0 -62965#0 -63260#9 -60552#6 -62445#1 --62836#0 -61736#0 --59957 -62483 -61919#1 -60778#0 -63902 -60995#2 --62057#1 --63330#0 -63562#4 -62325#0 --60030#0 --63265#2 -61564#6 --62618 -61209#1 -63025 -62234 -60552#4 -60903 --59751#3 --60896#3 --62425#0 --63194#4 -61190#2 -63485#1 -63591#1 --62722 --62402 --62894#0 --64049#10 --63998#7 -61831 --62703 -61109#1 --60093#2 -60597#7 --60449#1 --63372#2 -63406 --60041#1 -61913 --60030#2 --61990#0 --60552#5 -59877#0 --62387 --64047 -62309#10 --62587#2 --63998#4 -64011#3 -61602 -60773#1 -61700#0 -64009#0 --61466 --64066#0 --61743#0 -60731 --63472#0 --60857#0 --63194#2 -61863#4 -63938#1 -62299#0 -62833#2 --59713 -61723#0 -62325#3 -63688#1 -60954 --60927 -61781#0 --63406 -60909 --63851 -63044#2 -60382#1 --62832#0 --62261#1 -60713#2 -63736#1 -62698 --61287#0 --62587#1 --60000 --61432#4 -61219#1 --59802#1 -62161#2 -61486#0 --60723 --63416#1 --62894#2 -62240#1 -60552#7 --63615 --62384 --62529#0 -59751#3 --62057#13 -63955 --63989#6 --61840#0 --61432#0 --63227#4 --61279#0 --62309#3 -60382#0 --62009 -63398#4 --61432#7 -61209#0 --61840#1 -61882#1 --63194#7 -61827#1 --61164#0 -63207 -63989#0 -61432#1 --60382#1 -62425#1 --60233#3 -61374#0 -61409#0 --62259 --59813#0 --60995#1 -62148#1 -61328#2 --62242#1 -62309#16 -63989#9 --61302#1 --63109#1 --63044#4 --63732 --64081 -62197#0 --62057#16 --63991#0 -61219#5 --60466#1 --62472#4 -60276#8 --62965#1 -61310#0 --59872 --62325#5 --60305#1 -64011#4 --59931 --60233#5 --60907 -61948#1 --64049#2 -61919#0 --64063 --63215#4 -61484 --63077#2 --61400#0 --60362#2 -62434#5 --63428#4 -62839 -60233#6 -59960#1 -62121#1 -64052#0 -63438 -63329 --63562#1 -60857#2 -60362#2 --62832#1 --59968#0 --60424#0 -61698#2 --60597#9 --62057#8 --63485#1 -60649 -64011#11 --63761#2 -62657 --63175#1 --59960#0 --62657 --61743#2 --62509#3 -60382#2 -61141#0 -62472#3 -62632#49 -62057#8 -62687#1 --63877#7 -63265#2 -63016 --63207 --62824 --63194#6 -60403 -60765 --63620#0 --61335 -63658 --60030#1 -60030#1 --63956 -60512#0 --63989#2 --62106#1 --60225#1 -63383#4 --61109#2 -60775#1 --60073#2 -60362#1 --61500#1 --64009#0 --63215#2 -64031 -61409#1 --60995#2 --63016 --61799 --60283#0 --63736#0 --63373#0 --61219#1 -59751#2 -63877#8 -64049#4 --63979#0 --62289#3 --62533#1 -61917 --60651 --62236#3 -61948#0 -62836#0 --61147#1 -63416#2 -60445 --61209#0 --63947#0 -60391#3 --61957#0 --61166 --63056#1 -61803#5 -62832#1 --59757 --63955 --61801#2 --62855#0 --61141#1 -59813#1 -62325#1 --62309#4 -60149#0 --61564#6 -64024#0 --61412#0 -62844 --63077#5 -63989#10 --62451 --63688#1 -63703 --62309#7 --62999#4 -63005#2 -63549 -61147#1 -62243 --60896#1 -60549#1 --60233#7 -61576#0 -62129#1 --62349 --63472#3 --61576#0 --61409#0 --62641#2 --64011#3 --61210#2 -60896#3 -62641#3 -62197#3 --61694 --61749#2 --63947#1 --61827#2 -61154 --60909 -60276#2 --62879 --60125 --61637#1 -61971#1 -63260#1 -63260#3 --61827#0 --62277 -62999#3 -61288 -63912 -63359#5 -62032#0 -62878#4 -59909#1 -64066#1 --60901 --63472#4 --62043#1 -63184#0 -63346#0 -64011#6 -61932 --60860 --63194#15 --62236#13 -63194#14 -63435#0 -61500#0 --61735#0 --63886 -60597#0 -60896#1 -63077#2 --63877#9 --62434#6 --62512#1 --60894#1 -64030#1 --60175#1 -61564#8 --63591#2 -61046#1 --60778#3 --62984#2 -62658 -60199#2 -60347 --64049#3 --61913 -63808 --61696 -60225#1 -61278 --62425#1 --60233#6 --60219#0 --61144#1 --63056#0 -61083#0 -61564#1 --60549#0 --62434#3 -61083#9 --63428#6 -61486#1 -59931 -61500#2 -62641#1 --61432#1 -61719#1 -62161#1 -61466 -60708#0 --61576#1 -60771#0 -61743#3 -62192#2 -60857#1 -62984#0 -62805 -62879 -62703 -62192#0 -63441#1 -63373#1 -61698#0 -61432#8 --61723#5 --60539#1 -61374#1 -61456#0 -60276#9 -62009 --61576#3 -63194#6 --63428#0 --61749#0 -62068 --63161 --63496#0 -60539#0 --62434#1 -62057#14 -63163#1 -59881 --63019#1 -60415 --64011#8 -62940#2 -62920#1 --60940 --63591#0 --62374#1 -61281#1 -63398#6 --62309#10 --62833#0 --60391#2 --61486#1 --61936#1 --62236#5 -62940#0 --60597#7 --62894#3 --62013#1 -63019#0 --63428#7 --61698#0 -60219#0 -61334#1 -63472#3 --62309#9 --59798#0 --60219#6 -60552#1 --63109#0 -61803#2 -64011#8 -61723#7 --63989#10 --63200#0 -60800#1 -60175#0 --60073#0 -60917 -60688#4 -62402 --61827#3 --62940#2 --63740#0 --61957#1 -60346#3 -61749#0 -61808 --60219#1 -61140 -59960#0 --61863#3 --61310#1 -62663#1 -61310#1 -62894#5 --63305#0 --60995#0 -62512#0 --64049#4 --63194#11 -62439 -62057#7 -60000 --62236#6 --62289#0 --59877#3 -63472#2 -61210#0 -61287#1 --60399 --64049#6 --62148#1 -60457#0 -60894#1 --61219#0 -62434#4 --60861#1 -61763#0 -60597#6 -60073#0 --60896#4 -62632#45 --61564#0 -63416#1 --60552#0 -61219#6 -59921#0 -61979#1 --63536 --62063 --62192#2 --63227#3 --63163#3 --63428#1 --63155#1 --59921#1 --60062 --60877#1 -60457#2 -63852#1 --61576#2 -60744#0 -62236#10 -60276#6 -61144#3 -61432#3 -61190#0 -60006 --59909#1 -63637#2 -60067 -62832#3 --62999#2 --59837#2 -62641#2 --60118 -60391#1 --61334#0 --63077#0 --62236#10 --62687#0 -63556#5 -63736#0 -60778#3 -60233#9 --60552#8 --60175#0 --61265 --64075 --63265#1 -62236#2 --60283#1 -63109#1 -63373#0 63260#2 --63194#18 -62722 --61561#1 --61564#3 -61210#1 --60346#0 -62057#16 62632#53 --61456#1 -62289#0 -61719#0 -64077#0 --61923 -61144#2 --62833#2 -63591#0 -62389#4 -60708#1 -60771#2 -64049#12 -62281#0 --62309#1 -61564#9 --63347#3 -63985#1 --62944 -61749#2 -62824 -63260#8 --62236#12 -62013#0 -63305#1 --62320#0 -60512#1 --61985 --62641#3 --61781#0 --60744#1 --63661#1 -60642 --61219#5 --61925 --59877#6 --63346#0 -62219#1 -63534 -63428#6 --64011#11 -63998#4 -63989#8 -60305#0 -61030 -59907#0 --62197#2 -60588#1 --62516 -62057#1 -60149#2 -62236#8 --61484 -61527#2 -60219#5 --61594#0 -60449#1 -62641#4 -59907#5 -60346#4 --61723#2 --63908#3 -63372#2 --61046#1 -62984#1 63260#0 --62057#5 -63077#1 -60175#3 -63175#2 -63625#0 --60175#2 -62236#5 --62984#1 --61444 --62536 -63877#12 -61265 -61349#2 --59798#1 -63109#0 --60954 --61311 -60348 -60552#5 --64009#1 -63661#1 --61564#9 -63721#0 --63194#19 -62106#1 --60915 -62529#1 --63373#1 -63347#3 --62389#3 -62451 -60106 --62389#0 --62121#1 -60779#2 -62320#1 --62013#0 -63540 -63721#2 --61801#1 -59921#1 --61971#1 -60233#3 -63372#1 --61803#2 -59907#2 --61141#0 --60391#1 -60333#0 --60800#0 -63998#8 --63562#4 -62472#0 -60219#6 -62057#2 --59837#1 --63625#0 --60588#1 --60947 -63346#1 -61432#6 -63035 --61990#1 -61723#3 -63562#1 --61932 -59877#4 -59877#5 -60167 -63428#8 -60314 -62309#9 --63814#0 -60779#4 -63194#19 -63019#1 -60713#1 -62063 -60773#0 -62472#2 --60403 --63877#2 --62286 -63837#2 --62106#0 -61147#3 -63985#2 -63661#0 --61278 -61279#0 -62261#1 --61639#1 --63359#5 -62363 --62129#0 -62098 --62236#1 -62236#9 -62833#3 --62529#1 -60305#2 --62124 -63562#3 --61281#0 -61936#1 -60463#1 -63495 -61500#1 -63877#5 --63175#2 -62236#1 --62894#1 --62261#0 --60798 -63761#2 -60276#7 -62434#6 --60347 -62632#54 --62999#1 --62374#0 --61917 --60106 -63398#3 --62389#1 --61864 -59813#0 --61219#6 --61958#0 --60805 --62836#2 --63227#0 -59909#0 --62309#8 --64009#2 -63205 --60691 -62852#1 --62243 -59773 --61024 --62309#14 --63163#0 -60175#2 -62043#1 -60084 --63906 --63912 --61109#1 -63637#1 -61478 --62197#1 -63740#0 -63163#8 -61576#3 -63908#2 -63383#0 -62170#0 --60857#1 -61635 --62509#1 --61432#2 --61164#1 --60813 --61829#2 --63063#0 -62509#3 -59960#2 -63988 -62665#1 -63398#7 -61990#0 --61700#1 -61302#2 --60233#1 --62641#1 --62043#2 --63435#1 -63347#2 -61790 --61803#5 --62833#5 --60305#0 -62057#3 -61869#0 -62618 -59937 -63398#2 -63991#0 --60006 --63877#4 -60454#0 -62494 -61050#0 --62533#2 --63988 -63877#7 --61719#1 --62840 -61640 -62289#6 --62855#1 --63372#1 -61723#5 --63998#0 63260#10 -61801#0 --63989#4 -63456 -61302#0 -60125 --63562#3 -60073#2 -61743#0 -64055 --63703 -61405#1 -63077#4 -60688#2 --62472#0 -60877#1 -60332#1 -64049#2 -60896#4 --63588 -61109#2 -60199#0 --59960#2 --59837#3 --59751#0 -62878#1 --63194#14 -64008#1 -62148#0 --59753 --59877#4 --63194#10 -60346#2 -63199#0 --63219 -60873 -64081 -60877#2 --62261#3 --63359#1 -62309#13 --64066#1 -63708 -59877#6 --61144#2 --62671 -61829#0 -62236#4 -62421#2 --60771#0 -62277 --63347#0 --62707#0 --62641#5 -62832#0 -62855#0 -60605 -63219 -64052#1 -59913 -61882#0 -63260#2 -62641#5 --61517#0 --62805 -62533#1 --62587#0 --60391#4 -60276#5 -61749#1 -62233#0 -61723#4 --61210#1 -60894#0 -62189 -62259 -60062 -63794 -60030#2 -62425#2 --61700#2 -63194#2 -60233#4 -62124 -62389#1 -63194#15 -63359#2 --61144#3 -61218 --61979#2 63260#3 -60947 -59921#2 -60800#0 --59877#0 -63175#0 -61827#0 -64052#2 --62320#1 --62148#3 -59877#2 --64008#1 -62057#11 --61405#2 --63902 -60931 --61723#7 -63797#2 --61219#8 --64049#8 --63199#1 -62211 --60773#0 --63428#8 -60910#1 --63163#1 --62197#3 --62870 -59907#1 -61412#0 --63200#1 --63637#0 --61688#0 -60424#1 -62106#0 --60199#1 -63194#17 -61688#1 -62309#4 --64049#12 -62894#4 --61408#1 --63487 --63380 --59837#0 --60509 --60346#6 -60489#1 -60886 -61210#2 -61827#3 --60454#0 -62472#1 -62840 -60552#8 -61219#2 --61432#5 --62106#2 --62912 --62494 -62072 --61838#1 --63998#1 -60778#4 -62057#0 -59968#1 -64063 -60915 --59944 --62197#0 --60744#0 -61803#3 --63938#0 --61803#0 -60346#5 -60444 --62381 -62374#0 --63163#2 --63877#10 -61773 -59798#4 --61349#2 --63044#1 -60219#2 -63877#3 -59872 -63215#3 --60219#2 --60233#4 --61829#1 -60276#10 -62309#5 -62717 -63227#0 --62236#9 --62309#13 -63908#3 --61302#2 --63637#1 -61166 -63194#13 -63435#1 --63438 --62219#0 -60030#3 --62389#4 --59802#0 -60332#0 -63330#3 -62509#1 --62434#5 --61564#7 --63591#1 -61735#0 -63851 -63837#0 --60861#2 -61405#0 -61408#1 --62151 --60552#4 --60588#0 --62641#0 -61180#1 --62878#1 -63383#1 --60597#4 -61432#4 -61743#4 --62817 -63215#0 --62236#4 -61863#0 --59881 --64049#0 -61864 -63175#1 --63194#13 --62309#5 -60276#3"/>
    <!-- id="-816" name="Hay salam" -->