<?xml version="1.0" encoding="UTF-8"?>

<!-- Generated with SUMO Activity-Based Mobility Generator [https://github.com/lcodeca/SUMOActivityGen] -->

<routes xmlns:xsi="http://www.w3.org/2001/XMLSchema-instance" xsi:noNamespaceSchemaLocation="http://sumo.dlr.de/xsd/routes_file.xsd"> 
    <vehicle id="on-demand.0" type="on-demand" depart="0.0">
        <route edges="-179184"/>
        <stop lane="-179184_1" startPos="1.0" endPos="-1.0" triggered="person"/>
    </vehicle>
    <vehicle id="on-demand.1" type="on-demand" depart="0.0">
        <route edges="--178094#0"/>
        <stop lane="--178094#0_1" startPos="1.0" endPos="-1.0" triggered="person"/>
    </vehicle>
    <vehicle id="on-demand.2" type="on-demand" depart="0.0">
        <route edges="-180718#2"/>
        <stop lane="-180718#2_1" startPos="1.0" endPos="-1.0" triggered="person"/>
    </vehicle>
    <vehicle id="on-demand.3" type="on-demand" depart="0.0">
        <route edges="-179452#1"/>
        <stop lane="-179452#1_1" startPos="1.0" endPos="-1.0" triggered="person"/>
    </vehicle>
    <vehicle id="on-demand.4" type="on-demand" depart="0.0">
        <route edges="-179693#3"/>
        <stop lane="-179693#3_1" startPos="1.0" endPos="-1.0" triggered="person"/>
    </vehicle>
    <vehicle id="on-demand.5" type="on-demand" depart="0.0">
        <route edges="-181223#1"/>
        <stop lane="-181223#1_1" startPos="1.0" endPos="-1.0" triggered="person"/>
    </vehicle>
    <vehicle id="on-demand.6" type="on-demand" depart="0.0">
        <route edges="--180714"/>
        <stop lane="--180714_1" startPos="1.0" endPos="-1.0" triggered="person"/>
    </vehicle>
    <vehicle id="on-demand.7" type="on-demand" depart="0.0">
        <route edges="-180999#0"/>
        <stop lane="-180999#0_1" startPos="1.0" endPos="-1.0" triggered="person"/>
    </vehicle>
    <vehicle id="on-demand.8" type="on-demand" depart="0.0">
        <route edges="-179744#3"/>
        <stop lane="-179744#3_1" startPos="1.0" endPos="-1.0" triggered="person"/>
    </vehicle>
    <vehicle id="on-demand.9" type="on-demand" depart="0.0">
        <route edges="--179384#1"/>
        <stop lane="--179384#1_1" startPos="1.0" endPos="-1.0" triggered="person"/>
    </vehicle>
    <vehicle id="on-demand.10" type="on-demand" depart="0.0">
        <route edges="--181259#2"/>
        <stop lane="--181259#2_1" startPos="1.0" endPos="-1.0" triggered="person"/>
    </vehicle>
    <vehicle id="on-demand.11" type="on-demand" depart="0.0">
        <route edges="--181375"/>
        <stop lane="--181375_1" startPos="1.0" endPos="-1.0" triggered="person"/>
    </vehicle>
    <vehicle id="on-demand.12" type="on-demand" depart="0.0">
        <route edges="--178253#0"/>
        <stop lane="--178253#0_1" startPos="1.0" endPos="-1.0" triggered="person"/>
    </vehicle>
    <vehicle id="on-demand.13" type="on-demand" depart="0.0">
        <route edges="-177406#0"/>
        <stop lane="-177406#0_1" startPos="1.0" endPos="-1.0" triggered="person"/>
    </vehicle>
    <vehicle id="on-demand.14" type="on-demand" depart="0.0">
        <route edges="-179651#16"/>
        <stop lane="-179651#16_1" startPos="1.0" endPos="-1.0" triggered="person"/>
    </vehicle>
    <vehicle id="on-demand.15" type="on-demand" depart="0.0">
        <route edges="--177765"/>
        <stop lane="--177765_1" startPos="1.0" endPos="-1.0" triggered="person"/>
    </vehicle>
    <vehicle id="on-demand.16" type="on-demand" depart="0.0">
        <route edges="--179426#5"/>
        <stop lane="--179426#5_1" startPos="1.0" endPos="-1.0" triggered="person"/>
    </vehicle>
    <vehicle id="on-demand.17" type="on-demand" depart="0.0">
        <route edges="--177401#1"/>
        <stop lane="--177401#1_1" startPos="1.0" endPos="-1.0" triggered="person"/>
    </vehicle>
    <vehicle id="on-demand.18" type="on-demand" depart="0.0">
        <route edges="-178312"/>
        <stop lane="-178312_1" startPos="1.0" endPos="-1.0" triggered="person"/>
    </vehicle>
    <vehicle id="on-demand.19" type="on-demand" depart="0.0">
        <route edges="-178057#5"/>
        <stop lane="-178057#5_1" startPos="1.0" endPos="-1.0" triggered="person"/>
    </vehicle>
    <vehicle id="on-demand.20" type="on-demand" depart="0.0">
        <route edges="--181349#0"/>
        <stop lane="--181349#0_1" startPos="1.0" endPos="-1.0" triggered="person"/>
    </vehicle>
    <vehicle id="on-demand.21" type="on-demand" depart="0.0">
        <route edges="--179441#0"/>
        <stop lane="--179441#0_1" startPos="1.0" endPos="-1.0" triggered="person"/>
    </vehicle>
    <vehicle id="on-demand.22" type="on-demand" depart="0.0">
        <route edges="-178235"/>
        <stop lane="-178235_1" startPos="1.0" endPos="-1.0" triggered="person"/>
    </vehicle>
    <vehicle id="on-demand.23" type="on-demand" depart="0.0">
        <route edges="--178996#0"/>
        <stop lane="--178996#0_1" startPos="1.0" endPos="-1.0" triggered="person"/>
    </vehicle>
    <vehicle id="on-demand.24" type="on-demand" depart="0.0">
        <route edges="-177646#1"/>
        <stop lane="-177646#1_1" startPos="1.0" endPos="-1.0" triggered="person"/>
    </vehicle>
    <vehicle id="on-demand.25" type="on-demand" depart="0.0">
        <route edges="--180718#1"/>
        <stop lane="--180718#1_1" startPos="1.0" endPos="-1.0" triggered="person"/>
    </vehicle>
    <vehicle id="on-demand.26" type="on-demand" depart="0.0">
        <route edges="--180413#3"/>
        <stop lane="--180413#3_1" startPos="1.0" endPos="-1.0" triggered="person"/>
    </vehicle>
    <vehicle id="on-demand.27" type="on-demand" depart="0.0">
        <route edges="--179662#1"/>
        <stop lane="--179662#1_1" startPos="1.0" endPos="-1.0" triggered="person"/>
    </vehicle>
    <vehicle id="on-demand.28" type="on-demand" depart="0.0">
        <route edges="-181234#3"/>
        <stop lane="-181234#3_1" startPos="1.0" endPos="-1.0" triggered="person"/>
    </vehicle>
    <vehicle id="on-demand.29" type="on-demand" depart="0.0">
        <route edges="-177333#0"/>
        <stop lane="-177333#0_1" startPos="1.0" endPos="-1.0" triggered="person"/>
    </vehicle>
    <vehicle id="on-demand.30" type="on-demand" depart="0.0">
        <route edges="-180508#1"/>
        <stop lane="-180508#1_1" startPos="1.0" endPos="-1.0" triggered="person"/>
    </vehicle>
    <vehicle id="on-demand.31" type="on-demand" depart="0.0">
        <route edges="-179419"/>
        <stop lane="-179419_1" startPos="1.0" endPos="-1.0" triggered="person"/>
    </vehicle>
    <vehicle id="on-demand.32" type="on-demand" depart="0.0">
        <route edges="-179770#2"/>
        <stop lane="-179770#2_1" startPos="1.0" endPos="-1.0" triggered="person"/>
    </vehicle>
    <vehicle id="on-demand.33" type="on-demand" depart="0.0">
        <route edges="-177519#1"/>
        <stop lane="-177519#1_1" startPos="1.0" endPos="-1.0" triggered="person"/>
    </vehicle>
    <vehicle id="on-demand.34" type="on-demand" depart="0.0">
        <route edges="--179221#0"/>
        <stop lane="--179221#0_1" startPos="1.0" endPos="-1.0" triggered="person"/>
    </vehicle>
    <vehicle id="on-demand.35" type="on-demand" depart="0.0">
        <route edges="--179519#1"/>
        <stop lane="--179519#1_1" startPos="1.0" endPos="-1.0" triggered="person"/>
    </vehicle>
    <vehicle id="on-demand.36" type="on-demand" depart="0.0">
        <route edges="--181317#5"/>
        <stop lane="--181317#5_1" startPos="1.0" endPos="-1.0" triggered="person"/>
    </vehicle>
    <vehicle id="on-demand.37" type="on-demand" depart="0.0">
        <route edges="-179638#2"/>
        <stop lane="-179638#2_1" startPos="1.0" endPos="-1.0" triggered="person"/>
    </vehicle>
    <vehicle id="on-demand.38" type="on-demand" depart="0.0">
        <route edges="--181115#4"/>
        <stop lane="--181115#4_1" startPos="1.0" endPos="-1.0" triggered="person"/>
    </vehicle>
    <vehicle id="on-demand.39" type="on-demand" depart="0.0">
        <route edges="-178457"/>
        <stop lane="-178457_1" startPos="1.0" endPos="-1.0" triggered="person"/>
    </vehicle>
    <vehicle id="on-demand.40" type="on-demand" depart="0.0">
        <route edges="--180303#0"/>
        <stop lane="--180303#0_1" startPos="1.0" endPos="-1.0" triggered="person"/>
    </vehicle>
    <vehicle id="on-demand.41" type="on-demand" depart="0.0">
        <route edges="-181436#1"/>
        <stop lane="-181436#1_1" startPos="1.0" endPos="-1.0" triggered="person"/>
    </vehicle>
    <vehicle id="on-demand.42" type="on-demand" depart="0.0">
        <route edges="-179779#2"/>
        <stop lane="-179779#2_1" startPos="1.0" endPos="-1.0" triggered="person"/>
    </vehicle>
    <vehicle id="on-demand.43" type="on-demand" depart="0.0">
        <route edges="--178009#5"/>
        <stop lane="--178009#5_1" startPos="1.0" endPos="-1.0" triggered="person"/>
    </vehicle>
    <vehicle id="on-demand.44" type="on-demand" depart="0.0">
        <route edges="--181599#1"/>
        <stop lane="--181599#1_1" startPos="1.0" endPos="-1.0" triggered="person"/>
    </vehicle>
    <vehicle id="on-demand.45" type="on-demand" depart="0.0">
        <route edges="-180285#2"/>
        <stop lane="-180285#2_1" startPos="1.0" endPos="-1.0" triggered="person"/>
    </vehicle>
    <vehicle id="on-demand.46" type="on-demand" depart="0.0">
        <route edges="--178512#1"/>
        <stop lane="--178512#1_1" startPos="1.0" endPos="-1.0" triggered="person"/>
    </vehicle>
    <vehicle id="on-demand.47" type="on-demand" depart="0.0">
        <route edges="-181371#0"/>
        <stop lane="-181371#0_1" startPos="1.0" endPos="-1.0" triggered="person"/>
    </vehicle>
    <vehicle id="on-demand.48" type="on-demand" depart="0.0">
        <route edges="-179934#1"/>
        <stop lane="-179934#1_1" startPos="1.0" endPos="-1.0" triggered="person"/>
    </vehicle>
    <vehicle id="on-demand.49" type="on-demand" depart="0.0">
        <route edges="--177646#1"/>
        <stop lane="--177646#1_1" startPos="1.0" endPos="-1.0" triggered="person"/>
    </vehicle>
    <person id="-2081_-2051_5" type="pedestrian" depart="0.0">
        <ride from="-180467#1" to="-178057#14" arrivalPos="55.130325662850005" lines="taxi"/>
        <stop lane="-178057#14_0" duration="5541.647748814317" actType="P-NSH"/>
        <ride from="-178057#14" to="-180467#1" arrivalPos="10.970174491221776" lines="taxi"/>
        <stop lane="-180467#1_0" duration="1.0" actType="Home"/>
    </person>
    <vehicle id="-2075_-2051_2_tr" type="passenger" depart="triggered">
        <route edges="-177852 -179924 -179007#5 -181653#7 -181653#8 -181653#9 -181653#10 -181653#11 -181653#12 -181653#13 -181653#14 -177913#0 -179073#0 -179073#1 -179073#2 -178693 -181658#0 -181658#1 -177552#1 -177552#2 -178898#1 -178898#2 -178898#3 -178898#4 -178898#5 -178898#6 -178898#7 -178898#8 -178898#9 -178898#10 -178898#11 -178898#12 -178898#14 -178970#8 -178970#9 -178970#10 -178970#11 -178970#12 -181571#9 -181571#11 -181571#12 -181571#13 -181571#14 -179831#0 -179831#1 -179831#2 -179831#3 -179831#4 -179831#5 -177532#0 -177532#1 -178285#0 -178285#1 -178285#2 -178285#3 -178285#4 -178285#5 -178285#6 -178285#7 -178285#8 -178285#9 -178285#10 -178285#11 -177745#4 --181653#14 --181653#13 --181653#12 --181653#11 --181653#10 --181653#9 --181653#8 -177852"/>
        <stop parkingArea="-640337" triggered="true" expected="-2075_-2051_2"/>
        <stop lane="-177852_1" duration="1.0"/>
    </vehicle>
    <person id="-2075_-2051_2" type="pedestrian" depart="0.0">
        <ride from="-177852" to="-178970#11" arrivalPos="55.55" lines="-2075_-2051_2_tr"/>
        <walk edges="-178970#11 -178970#12 -180067#11 -180583#0 -180583#1 -180583#2 -180583#3 -180583#4 -180067#17 -179206#1 -178167#0 -178167#1 -178167#2 -178167#3 -178167#4 -178167#5 -178167#6 -178167#7 -178778#5 -178778#6 -179531#0 --180790 --177580#3 -177580#4" arrivalPos="40.87"/>
        <stop lane="-177580#4_0" duration="6815.186484101649" actType="P-NSH"/>
        <walk edges="-177580#4 -177580#3 -177580#2 -177580#1 -177580#0 -178421#0 -178167#5 -178167#4 -178167#3 -178167#2 -178167#1 -178167#0 -179206#1 -180067#17 -180067#16 -180067#15 -180067#14 -180067#13 -178365#2 -180583#0 -180067#11 -178970#12 -178970#11" arrivalPos="55.55"/>
        <ride from="-178970#11" to="-177852" arrivalPos="12.871573440471176" lines="-2075_-2051_2_tr"/>
        <stop lane="-177852_0" duration="1.0" actType="Home"/>
    </person>
    <vehicle id="-2075_-2089_1_tr" type="motorcycle" depart="triggered">
        <route edges="-181444 -179273#0 -181259#4 -181559#0 -181559#1 -179664#5 -179664#8 -179664#9 -179664#10 -177532#0 -177532#1 -178849#4 -180244 -180285#0 -180285#1 -180285#2 -180285#3 -181660#1 -181660#2 -181660#5 -181660#6 -179097#2 -179097#3 -178794 -177515#0 -177515#1 -177515#2 -177467#0 -177467#1 -177467#2 -180095#1 -179118#1 -179118#2 -179118#3 -180765#0 -180765#1 -180765#2 -177750#0 -177750#1 -177750#2 -177750#3 -180602#1 -180602#2 -181236#1 -181236#2 -181236#3 -178766#1 -178766#2 -181159#0 -181159#1 -180280#0 -180280#1 -180280#2 -180280#3 -180280#4 -177922#0 -177922#1 -177922#2 -180423#0 -180423#1 -181457#0 -181457#1 -181457#2 -181457#3 -181457#4 -181457#5 -181457#6 -181457#7 -181659#0 -181659#1 -181659#2 -181659#3 -179517#1 -177552#1 -177552#2 -177552#4 -180843#1 -180843#2 -180843#3 --177775#2 --177775#1 --177775#0 -181444"/>
        <stop parkingArea="-638374" triggered="true" expected="-2075_-2089_1"/>
        <stop lane="-181444_1" duration="1.0"/>
    </vehicle>
    <person id="-2075_-2089_1" type="pedestrian" depart="0.0">
        <ride from="-181444" to="-180765#2" arrivalPos="12.5" lines="-2075_-2089_1_tr"/>
        <walk edges="-180765#2 --180779#0" arrivalPos="30.01"/>
        <stop lane="--180779#0_0" duration="7304.3182855442965" actType="P-NSH"/>
        <walk edges="--180779#0 -180765#2" arrivalPos="12.5"/>
        <ride from="-180765#2" to="-181444" arrivalPos="19.28603005487757" lines="-2075_-2089_1_tr"/>
        <stop lane="-181444_0" duration="1.0" actType="Home"/>
    </person>
    <vehicle id="-2075_-2036_4_tr" type="passenger" depart="triggered">
        <route edges="-181234#2 -181234#3 -178237#3 -178237#4 -178237#6 -178237#8 -178237#9 -178237#10 -178237#11 -178237#12 --180009#0 -180595 -180301#0 -180301#1 --179744#6 --179744#5 --179744#4 --179744#3 --179744#2 --179744#1 --179744#0 -179785#2 -178591#1 -178020#9 -180129#0 -178703#2 -178703#3 -178703#4 -178703#5 -178045#1 -178045#2 -178045#3 -178045#4 -178045#5 -178045#6 -178045#7 -178979#0 -178979#1 --179812#2 --178281#1 --178281#0 -179723#1 -178496#0 -178496#1 -180981#4 -178281#1 -179812#2 -178942#0 -178942#1 -179948#3 -179948#4 -179948#5 -179948#6 -179948#7 -179948#8 -178141#1 -180602#1 -180602#2 -180095#1 -180488#0 -180488#1 --178591#1 --178591#0 -179744#0 -179744#1 -179744#2 -179744#3 --181289#1 --181289#0 -177697#4 -177697#5 -177697#6 -181209#1 --178056#1 --178568#1 --178568#0 --180913#1 -181234#2"/>
        <stop parkingArea="-645787" triggered="true" expected="-2075_-2036_4"/>
        <stop lane="-181234#2_1" duration="1.0"/>
    </vehicle>
    <person id="-2075_-2036_4" type="pedestrian" depart="0.0">
        <ride from="-181234#2" to="-178496#1" arrivalPos="12.5" lines="-2075_-2036_4_tr"/>
        <walk edges="-178496#1 -180981#4 --178281#1 --179812#2 -178315#3 -178315#2 -181278#5" arrivalPos="71.045"/>
        <stop lane="-181278#5_0" duration="6854.055340331118" actType="P-NSH"/>
        <walk edges="-181278#5 -178315#2 -178315#3 --179812#2 --178281#1 --180981#4 -178496#1" arrivalPos="12.5"/>
        <ride from="-178496#1" to="-181234#2" arrivalPos="18.440326575240224" lines="-2075_-2036_4_tr"/>
        <stop lane="-181234#2_0" duration="1.0" actType="Home"/>
    </person>
    <vehicle id="-2051_-2075_1_tr" type="passenger" depart="triggered">
        <route edges="-178057#14 -178057#15 -179651#14 -179651#15 -179651#16 -179651#17 -179651#18 -179651#19 -179651#20 -177552#4 -178810#0 -178810#1 -178810#2 -178810#3 -178810#4 -178172#0 -178172#1 -178172#2 -178755#1 -178755#2 -178755#3 --178028#3 --178028#2 --178028#1 -179771 -179454#2 -178534#9 -178534#10 -178534#11 -178534#12 -180067#4 -180067#5 -180067#6 -180067#7 -178057#11 -178057#12 -178057#13 -178057#14"/>
        <stop parkingArea="-649400" triggered="true" expected="-2051_-2075_1"/>
        <stop lane="-178057#14_1" duration="1.0"/>
    </vehicle>
    <person id="-2051_-2075_1" type="pedestrian" depart="0.0">
        <ride from="-178057#14" to="--178028#3" arrivalPos="97.81" lines="-2051_-2075_1_tr"/>
        <walk edges="--178028#3 --178028#5 --178028#6 --178028#7 -180843#2 -180843#1 -177532#0 -177532#1 -178285#0 -178285#1 -178285#2 --177975#1 -177975#0 --177549#4 --177549#6 --177549#8 --177549#9 -180200" arrivalPos="23.61"/>
        <stop lane="-180200_0" duration="6654.15624756443" actType="P-NSH"/>
        <walk edges="-180200 --177549#9 --177549#8 --177549#6 --177549#4 --177549#2 --177549#1 --177549#0 --179848#1 --179583#1 -179664#10 -177392 -177796#7 -177796#8 -177493#0 --178028#6 --178028#5 --178028#3" arrivalPos="97.81"/>
        <ride from="--178028#3" to="-178057#14" arrivalPos="19.960052701068584" lines="-2051_-2075_1_tr"/>
        <stop lane="-178057#14_0" duration="1.0" actType="Home"/>
    </person>
    <person id="-2051_-2051_7" type="pedestrian" depart="0.0">
        <ride from="-180067#6" to="-178970#21" arrivalPos="79.17" lines="taxi"/>
        <walk edges="-178006#1 -178006#2 -178006#3 -178006#4 -180694#0" arrivalPos="24.609374881860685"/>
        <stop lane="-180694#0_0" duration="6854.0415126099615" actType="P-NSH"/>
        <ride from="-180694#0" to="-178057#7" arrivalPos="12.52" lines="taxi"/>
        <walk edges="-180067#7 -180067#6" arrivalPos="141.63808725708682"/>
        <stop lane="-180067#6_0" duration="1.0" actType="Home"/>
    </person>
    <vehicle id="-2051_-2036_3_tr" type="motorcycle" depart="triggered">
        <route edges="-180067#12 -180067#13 -180067#14 -180067#15 -180067#16 -180067#17 -181115#0 -181115#1 -179651#10 -179651#12 -178057#19 -178298#0 -178298#1 -178057#21 -178057#22 -178136#1 -178136#2 -178136#3 -181457#4 -181457#5 -181457#6 -181457#7 -181659#0 -181659#1 -177302#0 -178898#8 -178898#9 -178898#10 -178898#11 -178898#12 -178898#14 -178970#8 -178970#9 -178970#10 -178970#11 -178970#12 -180067#11 -180067#12"/>
        <stop parkingArea="-642912" triggered="true" expected="-2051_-2036_3"/>
        <stop lane="-180067#12_1" duration="1.0"/>
    </vehicle>
    <person id="-2051_-2036_3" type="pedestrian" depart="0.0">
        <ride from="-180067#12" to="-178136#3" arrivalPos="90.38361974363633" lines="-2051_-2036_3_tr"/>
        <walk edges="-178136#3 -178136#2 -178136#1 -178057#22 -179191#1 -179191#2 -180961#3 -180961#4 -180961#5 -178970#4 -178898#16 -178898#17 -178898#18 -178898#19 -178898#22 -178898#23 -178195#1 -178195#2" arrivalPos="53.72"/>
        <stop lane="-178195#2_0" duration="7282.924198437221" actType="P-NSH"/>
        <walk edges="-178195#2 -178195#1 -178898#23 -178898#22 -178898#19 -178898#18 -178898#17 -178898#16 -178970#4 -178970#3 -179191#1 -179191#0 -178136#2 -178136#3" arrivalPos="90.38361974363633"/>
        <ride from="-178136#3" to="-180067#12" arrivalPos="118.2006902039833" lines="-2051_-2036_3_tr"/>
        <stop lane="-180067#12_0" duration="1.0" actType="Home"/>
    </person>
    <vehicle id="-2030_-2036_2_tr" type="motorcycle" depart="triggered">
        <route edges="--181386#0 --179526#0 -180285#2 -180285#3 -181660#1 -181660#2 -181660#5 -181660#6 -179097#2 -179097#3 -178699#0 -178699#1 -180837#1 -180837#2 -180280#0 -180280#1 -180280#2 -178969#0 -178969#1 -178969#2 -178969#3 -178969#4 -178969#5 -178969#11 -178969#12 -180624#1 -180624#2 -180624#3 -179412#0 -179412#1 -179412#2 -178753 -179594#0 -179594#1 --181698#8 -178599 --178599 -181698#7 -179594#2 -179594#3 -179594#4 -179594#5 -179594#6 -179594#7 -177448#0 -177448#2 -177448#4 -179651#2 -179651#5 -179651#7 -179651#9 -179651#10 -179651#12 -178057#19 -178298#0 -178298#1 -178057#21 -178057#22 -178136#1 -178136#2 -178136#3 -181457#4 -181457#5 -181457#6 -181457#7 -180656#1 --181386#1 --181386#0"/>
        <stop parkingArea="-642734" triggered="true" expected="-2030_-2036_2"/>
        <stop lane="--181386#0_1" duration="1.0"/>
    </vehicle>
    <person id="-2030_-2036_2" type="pedestrian" depart="0.0">
        <ride from="--181386#0" to="--181698#8" arrivalPos="12.5" lines="-2030_-2036_2_tr"/>
        <walk edges="--181698#8 -179594#1 -178722#5 -179412#1 -179412#0 -179233#0 -180772#3 -178820#1 -178820#2" arrivalPos="280.185"/>
        <stop lane="-178820#2_0" duration="5804.11145489285" actType="P-NSH"/>
        <walk edges="-178820#2 -178820#1 -180772#3 -179233#0 -179412#0 -179412#1 -179412#2 -178753 -179594#0 -179594#1 --181698#8" arrivalPos="12.5"/>
        <ride from="--181698#8" to="--181386#0" arrivalPos="16.87701656288685" lines="-2030_-2036_2_tr"/>
        <stop lane="--181386#0_0" duration="1.0" actType="Home"/>
    </person>
    <person id="-2036_-2030_3" type="pedestrian" depart="0.0">
        <ride from="--177580#5" to="-180230#1" arrivalPos="39.55" lines="taxi"/>
        <walk edges="--179482#0" arrivalPos="43.51306845224883"/>
        <stop lane="--179482#0_0" duration="6852.169066864575" actType="P-NSH"/>
        <ride from="--179482#0" to="--177580#5" arrivalPos="36.265546277063834" lines="taxi"/>
        <stop lane="--177580#5_0" duration="1.0" actType="Home"/>
    </person>
    <vehicle id="-2036_-2036_42_tr" type="motorcycle" depart="triggered">
        <route edges="-179349#2 -179349#3 -179349#4 -179233#0 -179233#1 -178939 -179795#0 -179795#1 -179555 -179199#0 -179199#1 -180596#0 -180596#1 -177481#0 -177481#1 -177481#5 -177481#9 -177481#10 -177481#11 -177481#12 -177481#13 -180280#4 -177922#0 -177922#1 -177922#2 -180423#0 -180423#1 -179839#1 -179839#2 -178136#3 -181457#4 -181457#5 -181457#6 -181457#7 -180656#1 --181386#1 --181386#0 --179526#0 -180285#2 -180285#3 -181660#1 -181660#2 -181660#5 -181660#6 -179097#2 -179097#3 -178794 -177515#0 -177515#1 -177515#2 -177467#0 -177467#1 -177467#2 -178703#2 -178703#3 -178703#4 -178703#5 -178045#1 -178045#2 -178045#3 -178045#4 -178045#5 -178045#6 -178045#7 -178979#0 -178979#1 -179349#0 -179349#1 -179349#2"/>
        <stop parkingArea="-642912" triggered="true" expected="-2036_-2036_42"/>
        <stop lane="-179349#2_1" duration="1.0"/>
    </vehicle>
    <person id="-2036_-2036_42" type="pedestrian" depart="0.0">
        <ride from="-179349#2" to="-178136#3" arrivalPos="90.38361974363633" lines="-2036_-2036_42_tr"/>
        <walk edges="-178136#3 -178136#2 -178136#1 -178057#22 -179191#1 -179191#2 -180961#3 -180961#4 -180961#5 -178970#4 -178898#16 -178898#17 -178898#18 -178898#19 -178898#22 -178898#23 -178195#1 -178195#2" arrivalPos="53.72"/>
        <stop lane="-178195#2_0" duration="5751.2515376028805" actType="P-NSH"/>
        <walk edges="-178195#2 -178195#1 -178898#23 -178898#22 -178898#19 -178898#18 -178898#17 -178898#16 -178970#4 -178970#3 -179191#1 -179191#0 -178136#2 -178136#3" arrivalPos="90.38361974363633"/>
        <ride from="-178136#3" to="-179349#2" arrivalPos="19.517898580577892" lines="-2036_-2036_42_tr"/>
        <stop lane="-179349#2_0" duration="1.0" actType="Home"/>
    </person>
    <vehicle id="-2036_-2036_88_tr" type="motorcycle" depart="triggered">
        <route edges="-179349#4 -179233#0 -179233#1 -178939 -179795#0 -179795#1 -179555 -179199#0 -179199#1 -178315#1 -178315#2 -178315#3 -178942#0 -179723#0 -179723#1 -178496#0 -178496#1 -180981#4 -178281#1 -179812#2 -179349#0 -179349#1 -179349#2 -179349#3 -179349#4"/>
        <stop parkingArea="-645787" triggered="true" expected="-2036_-2036_88"/>
        <stop lane="-179349#4_1" duration="1.0"/>
    </vehicle>
    <person id="-2036_-2036_88" type="pedestrian" depart="0.0">
        <ride from="-179349#4" to="-178496#1" arrivalPos="12.5" lines="-2036_-2036_88_tr"/>
        <walk edges="-178496#1 -180981#4 --178281#1 --179812#2 -178315#3 --180798" arrivalPos="110.91"/>
        <stop lane="--180798_0" duration="7167.845017581611" actType="P-NSH"/>
        <walk edges="--180798 -178315#3 --179812#2 --178281#1 --180981#4 -178496#1" arrivalPos="12.5"/>
        <ride from="-178496#1" to="-179349#4" arrivalPos="156.46274683672377" lines="-2036_-2036_88_tr"/>
        <stop lane="-179349#4_0" duration="1.0" actType="Home"/>
    </person>
    <vehicle id="-2036_-2036_91_tr" type="motorcycle" depart="triggered">
        <route edges="--179812#0 --178798 -180981#2 -180981#3 -180981#4 -178281#1 -179812#2 -177519#0 -177519#1 -177519#2 -178540 -180632#0 -180632#1 -180632#2 -180632#3 -180632#4 -180624#1 -180624#2 -180624#3 -179412#0 -179412#1 -179412#2 -178753 -179594#0 -179594#1 --181698#8 --181698#5 --181698#4 --181698#3 -181120#0 -181120#1 -181120#2 -181120#3 --177485#1 --177485#0 -179690#2 -179690#3 -177405#0 -177405#1 -177784#0 -177784#2 -179555 -179199#0 -179199#1 -178315#1 -178315#2 -178315#3 --179812#2 --179812#1 --179812#0"/>
        <stop parkingArea="-642734" triggered="true" expected="-2036_-2036_91"/>
        <stop lane="--179812#0_1" duration="1.0"/>
    </vehicle>
    <person id="-2036_-2036_91" type="pedestrian" depart="0.0">
        <ride from="--179812#0" to="--181698#8" arrivalPos="12.5" lines="-2036_-2036_91_tr"/>
        <walk edges="--181698#8 -179594#2 -179594#3 -179594#4 -179594#5 -179594#6 -179594#7 -181243#2 -181243#3 -181243#4 -181243#5 -181451#7 -181451#8" arrivalPos="111.655"/>
        <stop lane="-181451#8_0" duration="7312.335107579011" actType="P-NSH"/>
        <walk edges="-181451#8 -181451#7 -181243#5 -181243#4 -181243#3 -181243#2 -179594#7 -179594#6 -179594#5 -179594#4 -179594#3 -179594#2 --181698#8" arrivalPos="12.5"/>
        <ride from="--181698#8" to="--179812#0" arrivalPos="21.358116273395577" lines="-2036_-2036_91_tr"/>
        <stop lane="--179812#0_0" duration="1.0" actType="Home"/>
    </person>
    <vehicle id="-2051_-2081_0_tr" type="passenger" depart="triggered">
        <route edges="--177476#1 -177448#4 -179651#2 -179651#5 -179651#7 -179651#9 -179651#10 -179651#12 -179651#14 -179651#15 -179651#16 -179651#17 -179651#18 -179651#19 -179651#20 -177552#4 -180843#1 -180843#2 -180843#3 -180843#6 -180843#8 -180843#9 -180843#10 -180778#0 -180074#1 -180329#0 -180329#2 -179914 -181154#0 -181154#1 -181154#2 -181154#3 -181154#4 -179302#1 -179302#2 -179302#3 -179302#5 --177603#5 --177603#4 --177603#3 --177603#2 --177603#1 --177603#0 --179071#13 --179071#12 --179071#11 --179071#10 --179071#9 --179071#8 --179071#7 --179071#6 -178310#0 -178310#1 -178310#2 -178310#4 -178310#5 -178310#6 -178310#7 -178249#0 --179358#1 --179358#0 --181339#2 -181212#0 -181212#2 --179559#0 -181508 -181564#0 -181564#1 -181564#2 -181564#3 -181564#4 -181653#0 -181653#1 -181653#2 -181653#4 -181653#5 -181653#7 -181653#8 -181653#9 -181653#10 -181653#11 -181653#12 -181653#13 -181653#14 -177913#0 -179073#0 -179073#1 -179073#2 -178693 -181658#0 -181658#1 -177552#1 -177552#2 -178898#1 -178898#2 -178898#3 -178898#4 -178898#5 -178898#6 -178898#7 -178898#8 -178898#9 -178898#10 -178898#11 -178898#12 -178898#14 -178898#16 -178898#17 -178898#18 -178898#19 -178898#22 -178898#23 -179955#2 -179955#3 -177580#3 -177580#4 --177476#1"/>
        <stop parkingArea="-648978" triggered="true" expected="-2051_-2081_0"/>
        <stop lane="--177476#1_1" duration="1.0"/>
    </vehicle>
    <person id="-2051_-2081_0" type="pedestrian" depart="11.74">
        <ride from="--177476#1" to="--179358#0" arrivalPos="12.5" lines="-2051_-2081_0_tr"/>
        <walk edges="--179358#0 --178893#5 --178893#3 --178893#2 --178893#1 --178893#0 --178242 -178937#4 --179807#0 -179312" arrivalPos="53.64"/>
        <stop lane="-179312_0" duration="7698.75733556428" actType="P-NSH"/>
        <walk edges="-179312 --179807#0 --178937#4 --178242 --178893#0 --178893#1 --178893#2 --178893#3 --178893#5 --179358#0" arrivalPos="12.5"/>
        <ride from="--179358#0" to="--177476#1" arrivalPos="30.99474020600468" lines="-2051_-2081_0_tr"/>
        <stop lane="--177476#1_0" duration="1.0" actType="Home"/>
    </person>
    <person id="-2089_-2089_1" type="pedestrian" depart="16.58">
        <ride from="--181115#3" to="-178410#2" arrivalPos="38.5999021293147" lines="taxi"/>
        <stop lane="-178410#2_0" duration="6464.644456215828" actType="P-NSH"/>
        <ride from="-178410#2" to="-178898#16" arrivalPos="147.63" lines="taxi"/>
        <walk edges="--181115#3" arrivalPos="182.84378906333913"/>
        <stop lane="--181115#3_0" duration="1.0" actType="Home"/>
    </person>
    <vehicle id="-2075_-2036_1_tr" type="passenger" depart="triggered">
        <route edges="-177456 -179664#3 -179664#4 -179664#5 -179664#8 -179664#9 -179664#10 -177532#0 -177532#1 -178849#4 -180244 -180285#0 -180285#1 -180285#2 -180285#3 -181660#1 -181660#2 -181660#5 -181660#6 -179097#2 -179097#3 -178699#0 -178699#1 -180837#1 -180837#2 -180280#0 -180280#1 -180280#2 -178969#0 -178969#1 -178969#2 -178969#3 -178969#4 -178969#5 -178969#11 -178969#12 -180624#1 -180624#2 -180624#3 -179412#0 -179412#1 -179412#2 -178753 -179594#0 -179594#1 --181698#8 -178599 --178599 -181698#7 -179594#2 -179594#3 -179594#4 -179594#5 -179594#6 -179594#7 -177448#0 -177448#2 -177448#4 -179651#2 -179651#5 -179651#7 -179651#9 -179651#10 -179651#12 -179651#14 -179651#15 -179651#16 -179651#17 -179651#18 -179651#19 -179651#20 -177552#4 -180843#1 -180843#2 -180843#3 -180843#6 -180843#8 -180843#9 -180843#10 -180778#0 -180074#1 -180329#0 -180329#2 -178845#0 -178845#1 -178498#0 -178498#1 -179371#0 -179371#1 -179371#2 -180868 -178368#0 -178368#1 -177456"/>
        <stop parkingArea="-642734" triggered="true" expected="-2075_-2036_1"/>
        <stop lane="-177456_1" duration="1.0"/>
    </vehicle>
    <person id="-2075_-2036_1" type="pedestrian" depart="28.3">
        <ride from="-177456" to="--181698#8" arrivalPos="12.5" lines="-2075_-2036_1_tr"/>
        <walk edges="--181698#8 -179594#1 -178722#5 -179412#1 -179412#0 -179233#0" arrivalPos="156.285"/>