<?xml version="1.0" encoding="UTF-8"?>

<!-- generated on 2025-08-27 16:56:19.016260 by scenarioFromOSM.py UNKNOWN
  options: <doubleminus>osm H2ST9_cp.osm <doubleminus>out ep4 <doubleminus>population 300 <doubleminus>local-defaults
-->

<tazs xmlns:xsi="http://www.w3.org/2001/XMLSchema-instance" xsi:noNamespaceSchemaLocation="http://sumo.dlr.de/xsd/taz_file.xsd">
    <!-- id="-2030" name="Oulfa" -->
    <taz id="-2030" edges="--179020 --180355 -177579 --177521#0 --178539#0 -178244#0 -178503#0 -181497#1 -181427 -181064#1 -181457#7 -179248#0 -180173#0 --179164 --179587#1 --178870#1 -178152#2 -177343#1 --180120#0 --178846#0 -181650#1 -181085 --178539#1 -177925#7 --177957#4 --180842#1 -179222#4 -177710 --179631#1 --181662#2 --181386#1 -180586#5 -179455#0 -180602#2 -181176 -178020#9 -180385#3 -178686#0 --178933#3 --180987#1 -181504#1 -177761#1 -180841 --177639#0 -179517#1 --177561#1 --178460 --177521#1 --178466#0 --178243 -179851#0 --180331#1 --178136#3 -180271#0 -181585#1 -177667 -178522 -181097 --179455#3 -178109#0 --179774 --181377#1 --178219#0 --181149#1 --178456#0 --180072#0 --180531 -178686#11 -180913#1 --180742 -177761#0 --179117 --179222#2 --178730#1 -179714 -181692#1 -178408#4 -178193 -177790#0 --179221#1 --179239 -180597#0 --177304 -178673 -179879 -181366#1 --181118#3 -178410#2 -180987#0 -177943 -180488#1 --179373#0 -181111#4 --181673 -178385#4 --180644#0 -178136#3 -181221#1 -181234#2 -177790#2 -179754 --181634#1 -179920 -179253 --180023#0 --179420 -180272 -178850#2 -179582 --179851#1 -179774 --178623#0 -179305 -179501#0 -178237#8 -177846#2 --177379#2 --180982 -180056 -177349#0 --179363#0 -177918 -178007#1 -178408#5 --181414#3 -177957#6 -181092 --179471 -178237#6 -180910 --181037#1 -181017#0 --180549#0 -180497 --178828 --181111#6 -179786 --179942 -179311#0 --181366#4 --177925#2 --178743#2 -179631#2 --178296#1 -181034#2 -179655 -178245 -178079 --181414#2 -180531 -178967#2 -179631#3 -178394#1 -179086#1 --178667#2 -178526#2 --178815#0 -180710 -177692#2 -177925#2 -181659#3 -179118#1 --177719 -181373 --177842 -180656#1 -180961#3 -178526#10 --181494#5 -177563 -181064#2 --178157#1 -177387#1 -177761#4 --177988 --180508#1 -178503#3 --179744#5 -178686#6 -178815#0 -180999#3 --177735#2 -177979#1 -180230#1 -180631#2 -178137#2 -181691#1 --177344 -180331#0 -180799#1 --179197 -178585#0 --180950 -180508#0 -181017#5 --177308#3 --181686 --180260 -180477#1 --180816#0 -180515#0 -180760 -181028#3 -181436#1 -179073#2 --177972 --180121#0 --179631#3 --177744 --181166 -180221#0 -180988#1 -178607#0 -179335#0 --180390#5 --181076#3 --177676#1 --181646 --179744#1 --178237#4 --178137#0 -178952#2 -178059#4 -181680 --181064#1 -177370 -178319#3 -177417#1 --177554 -179907#2 --179920 -180471 -180742 -180121#1 -178057#22 --179631#2 -181377#0 -178970#3 --179501#1 -181366#4 -181221#2 -180071#2 -181692#3 --177592#2 --177411 --180424 -177376 --181312#2 -180229#1 -180260 --179287#2 -181669#3 --181669#8 --178449 -177697#1 -177783 -178933#3 --180331#0 --180333 -181234#0 --178408#7 --177629 --179585#1 --177864 --178686#11 -180999#1 --177907 --178686#8 -178539#1 -181414#4 -178408#3 -178898#6 --180847 --181414#0 --181295 -181023 -178743#1 -177697#0 --177733#0 -177916#2 --179847#1 --180665#2 -181256#0 -180837#2 -178898#1 -181457#6 --180999#1 -180980 -178526#0 -180928#3 --177943 -181356 -181670 -179400#3 -181111#6 --180268#0 -181157 --181302#3 --177698 -180158#1 -179558#6 -178526#6 --179892 --177639#1 -179466#13 --177522 --180669#1 -178526#7 --178372#1 -179466#6 --180023#1 --178197 -181669#12 --179253 --179740 -177349#1 -178136#0 -179744#3 --181221#0 -178166#0 -179466#3 --178747 -181681#1 --177805#1 -180238#1 -177379#2 -179286 -180586#7 --177884#1 -181017#2 --180173#4 --177499#0 --180659#2 --181386#0 -181436#2 -180633#0 --178641#1 --181114#0 --178655 --177438#1 -180928#0 -178408#6 -179554 --178237#10 -178005#0 -177727#0 -179083#0 -180238#0 --180214#1 -181366#2 -181520#1 --180221#1 -180173#4 -178704#0 -178044 -177639#2 -177624#2 -181428#1 --178193 --177925#6 -180586#2 --180283#1 -177735#2 --181312#3 -178950 --177468#0 --177925#7 -178057#20 -177880#0 -178358#0 --179554 --179450#1 -177827#1 -179464#1 -179839#2 -180230#3 --179268#0 -178889 -181494#0 -180826 -181669#14 -178535#1 --178933#0 --179642 --179025 -177957#4 -179469 --178558 -178967#1 -179222#5 -178020#2 -178372#1 -179373#0 -179466#10 -178456#0 -178048 -179363#0 -181239 -179185#2 -177302#0 -180796#1 -181605 -179191#1 --179818#1 -179143#1 --179907#2 -180799#0 -181634#1 --177649 --181289#1 -181377#2 --177783 -181302#0 --181042#5 -177411 -181359#2 -178296#1 --181054#0 --177925#4 -179682#1 -178150#2 -179558#0 -180669#0 -179394#0 --180160#1 -179526#0 -179466#9 --179111 -181428#0 --179935#0 --178296#3 -177916#4 -179407#0 -181197#1 -177438#0 -179400#2 -181209#1 --178743#0 -179420 --179744#3 -177358 -178567 -177926#4 -180385#1 -181386#1 --181169 -178152#3 --179744#6 --181064#3 -178311#2 --181366#0 --180796#0 --178633#1 -177884#1 --180577 -178585#2 -181201 -181377#1 --177926#4 -178568#0 -180440 -180977#1 --179744#4 --178591#0 --180665#0 -177467#0 -181312#0 --180418#1 -181574 --178033 -180678#1 --177406#0 --177417#0 -179307#1 -179020 --181221#1 -180348#0 -180659#2 --180341#0 -179547#1 --180498 --178166#2 -179395#2 -179466#12 --177912#6 -179138 --178367#10 -178128 --178303 --180992 -179748 -180586#1 -180928#4 -178531#0 --180341#1 -179744#8 --181680 --179587#0 -178367#4 --181034#2 -181377#9 -179335#1 -181696 -179395#3 --180522 --181682#0 -178408#1 -179565 -178250 --181389 -179482#0 --178686#9 -178175 --178194#2 --177891#0 -179575#4 -180298#3 -179552#0 --177753 -180496#2 --177925#3 -180264#4 --179322 --178435 --180692#1 -179895#4 --180301#0 -177985#0 --180150#0 -178641#0 -180871 --180230#1 --180319 -180792#2 -179360#0 --181383#0 -178983 -179744#1 --178633#0 -179394#1 -178508 -178435 --180077 --177349#1 -181330 -179466#0 -179962 --181111#7 --181629 --177592#0 --178643 --180106 -178150#0 -178739 --179719 -179733#2 -178367#5 --180559 -181591#0 --178279 -177881 --178296#4 -181350 -179695 -181494#5 --179260#1 -177805#0 --179275#2 -181236#1 --178644 --179786 --178311#0 -178831#1 --180792#2 --181530 -177624#3 -179669 --180508#0 --179216#1 --181366#3 -177697#4 -181673 --178607#1 -180373 --181300#4 -178296#3 --181312#0 -178748 -180796#0 -178898#5 -180114#1 -177521#1 --178410#1 --181264#3 --178237#11 -181660#5 -180756#1 -179802#0 -179651#18 --179851#4 -181494#4 -181135 --178245 -179851#4 -180280#4 --178408#4 -179516 --180591 -179289#0 --179778#5 --181264#0 --181366#2 --178591#1 --180801#1 --178533 --177957#6 --179463#1 -181457#0 -181076#3 --179092 -178815#1 --178590 -177842 -177438#3 -178243 --181337 -180692#0 -178466#0 -179111 -177344 --181691#1 --179501#2 -179738#0 --181414#4 --180071#2 --178128 -180173#3 -181414#0 --178190 -178194#2 --179222#0 -179563 -177735#3 --181111#5 --178157#2 -178385#1 -180385#4 -180796#2 -179986 -180121#0 -179648 -179094#1 --179335#3 --180913#0 -177624#6 -177697#3 --179305 -178367#1 -181100#1 -179596 -181047 -180593 -180883#0 --177916#1 --181061 -180586#15 --179895#1 --178060#2 -180881 -179166 --177438#2 -177912#6 -178336#1 -177624#4 -180250 --179335#1 --177561#0 -178858 --180610#0 --181377#5 --179929#2 -177950#1 --178500#0 --177979#0 --178520 --179343#2 -179558#7 -180418#1 -180961#2 --181039 -178566#1 --179222#5 -181609#0 --178044 --178686#3 -177460#0 -180339 --179754 -178585#1 -178194#0 --178408#1 -179170 -180341#0 -178136#2 -181681#2 --177499#2 -177587 -178849#4 -180488#0 -179552#1 -178846#1 --180760 -177504#4 --179307#2 -179287#0 -179239 -177539 --179243 -180591 -179046#1 -181686 -179586 --181691#0 -178020#5 --180801#0 --179682#0 -181100#0 --177733#1 --181650#1 --181329 --181494#2 -178526#5 -178703#2 -177864 -181028#2 -178898#10 --180552#1 --178623#1 -181591#1 -178517#2 -179179 --177884#0 -180120#1 -180678#0 -180586#20 --178408#0 -180631#0 --178136#0 -180230#0 -178699#1 -179845 --177957#9 -180941#0 -180390#1 -178531#1 --179136#1 --181097 -180300 -177925#1 -181481 --179526#0 --178175 -177989#1 --178162 --180987#2 -181221#3 -179097#2 -180756#0 -178766#2 -177676#1 -178632 -179322 -179676#0 --180515#0 -178059#3 -180586#6 --177916#0 --181170#1 -177504#7 -179501#2 --180390#3 -178020#4 -178219#0 -178813#0 --177803 -181074 --177793#1 -178237#9 --179851#0 -180947#1 -179164 -177304 -181669#7 --177957#5 --177957#7 --178296#0 -181264#5 -178693 -179429 --181427 --178671#0 -178535#0 -181037#1 --181669#10 -178566#0 -179373#1 -180586#18 --178152#3 --180496#3 --181669#1 -178166#2 --178319#0 -177308#3 -179243 -177744 -178641#1 --181485 --179787 --180440 -177950#2 --178516 -178082#0 -181312#2 -180939#0 -180842#1 -180221#3 --180071#1 -179895#2 -177925#0 -181295 --178650 -180348#1 -181585#0 --180910 --177912#0 -179631#0 --179222#1 --181264#5 -179677 --177343#1 --178930 --179681 --179839#2 -181412#4 -178303 -177922#1 -181660#2 --178237#9 -178375 -177467#1 -180692#1 -181681#0 --178311#2 --178410#3 -178237#10 -180390#2 --179060 --177558 --180928#3 -178020#7 -180218 -180945#0 -179919 -177522 -178743#2 -179752#1 -179039 --181513#0 -179843 -178136#1 -178751#3 -179185#0 -178082#1 --178641#4 --177666#4 --180009#0 -179248#1 -181064#3 --177662 -177985#2 -179311#2 -177649 --178311#4 -181256#1 -178057#24 -180385#2 --179058 --181239 -180913#0 --177631 -178898#8 --177701#0 -177697#6 --178237#8 -177467#2 --179585#0 -179268#0 --179083#3 -179191#2 --178686#2 -181163#0 --179464#0 -181307#5 -177421 --180173#1 -177499#0 -177592#0 --179345 -179907#1 -180999#0 --177920 -179858 --179563 -181634#0 --178214 -179034#1 -177707 --179655 --179516 --181662#0 -178607#3 -181377#5 -180110#0 --180496#0 -180508#1 --179221#0 -181669#8 -177499#1 -177916#0 -179290 -180353 -178439#0 -180964#0 -180150#0 -179570 --179400#5 -177891#2 -178526#3 -178593#0 -178970#1 -178643 --178813#0 -178641#4 -180633#1 --178889 -179455#1 --181554 -181164 -178311#1 --181300#1 -180832#3 -179411 -180961#5 --180759 --180584#0 -177318#0 --181632 --180353 -177666#1 -177719 -179498 -181480#0 -180659#3 -180799#2 --180430#1 --177891#2 --180446 -180167#0 --179186#0 --179289#1 --180832#1 --177735#1 --180988#0 --181170#0 -177553 --178367#1 -180586#4 --180238#1 --178870#0 -177352#2 --178736 -180755#0 -178686#7 -179260#1 -180230#2 --178571 --177916#2 --180087 -181566#2 --177916#3 --178850#0 --179567 -177811 -177912#4 -178526#8 -178591#1 -178633#0 -179587#4 --178410#4 --181669#5 --181227#2 -178265 -180184 --179676#0 -179216#1 -181075 -180152 --179476 --181616 -180264#3 -180941#1 -181691#0 -177321 -179335#3 --178667#0 --178686#1 --177358 -180423#0 -178935 -178794 -179893 -178279 -179766 -180477#0 -178641#3 -179191#0 --180230#2 -177916#5 --180710 -179574 -179881#1 -181414#1 --181076#0 -180301#1 -180107#0 -181457#4 --179311#1 -179289#1 -177592#1 -179272 --178296#2 -178850#1 -177991 -178874#1 -178751#2 --177302#0 -181227#0 --181377#2 --179460 -178426#0 --181114#1 -181420#0 --178155 --177499#1 -178686#1 -179691#2 -179222#1 -180724#1 -179929#1 -178056#1 --177957#2 -181142#2 --181312#1 --179268#1 -181414#3 -180157 -180982 -180549#1 --179283 --179501#0 -180298#1 -181307#7 --177912#1 -179576#1 --178311#5 --181253#0 --179631#0 --179472 -180072#1 --178367#0 --178367#2 --179582 -181035 --179676#1 -181236#2 -180229#2 -180586#13 -181253#1 --178641#2 -179587#3 --177676#0 --178375 --180973 -180053 -179785#2 -178667#2 -181312#4 --178410#2 -178020#0 -178394#0 -179061#0 -177592#2 -179466#2 -178898#14 --180659#0 --179006 --177727#3 --179307#0 --179455#0 -177484#3 --178145 -178585#3 -178686#2 -177970 -178020#1 -181513#1 -181076#0 -178699#0 --180357 --181356 --181650#0 --180987#4 -180532#1 -179222#3 --179778#0 --177592#1 --179166 -178686#8 -179873 --181494#0 -178093#1 --181428#0 --180878 --179818#0 -177561#1 -180647 -179375 -179006 -179476 -177379#0 --178858 -178060#1 -180331#2 -181497#0 -178730#3 -178408#7 --179596 -179889 -181348 -178269#2 --178367#7 --178673 -177554 -179818#2 --180108#2 -181111#7 --178137#3 --178250 --179744#8 -179526#2 -178298#0 -179658 -181490 -179575#0 --177925#8 -177515#0 --181609#2 -178235 -181609#2 -181646 -180945#2 --178194#0 -178730#1 -180792#0 -181682#0 --177805#0 -181169 --178367#4 --180816#1 -179083#2 -180987#4 -179788#2 -178093#0 -181264#0 --181264#6 -178157#1 -180578 -179460 --177926#1 --180999#3 -179284#6 -180385#0 -180173#1 --178597#1 --177507 --181300#2 -180586#23 -179625 -180801#0 -177950#3 -180114#0 --178568#1 --180146 -179510 --178391 -178970#0 --179287#0 -179587#0 -180837#0 --181566#4 --177925#0 --179377#0 -179501#1 -180552#1 --181033 --179311#0 -178057#23 -179691#5 -180639 --180496#2 --178367#8 -179711 -179347 -179034#2 --177953 --181377#0 -178296#2 --177957#0 --180348#1 --179307#1 -177891#1 -177926#0 --179575#4 -181301 --180221#3 -178686#10 --179558#5 -178060#2 -179902 -180160#1 -181234#3 -181329 -181359#0 -178456#2 -178189 --180647 --180298#0 -179183 -180539 -180977#0 -181264#4 -177488#0 -179567 --178746 -178850#0 --179547#0 -178336#0 -177735#1 -180095#1 -179967#0 -181384 --180072#1 --180339 -177504#8 -177624#0 -178244#1 --180167#0 -180108#2 --177957#10 --179818#2 --179400#6 --177349#0 --180945#0 -178457 -180264#1 -178579 --178150#2 -178896 -180576 -177793#0 --179677 --179869#1 -179238 --179929#0 --181585#0 --179893 -177406#1 -177884#0 -178539#0 -177636#0 --179558#2 -178219#1 --178667#1 -179373#2 -179740 -181302#1 -178746 -179703#0 -178157#2 --181373 -177631 -178898#2 -178137#3 --178416 --179558#1 -181108 --179343#3 -179092 --177438#3 --178593#1 --180390#1 -177523#0 -177922#0 -178319#1 --177561#2 -177701#1 --180756#1 --179086#0 -180214#1 -180100#1 -179400#5 -181480#2 --179359 -179060 -180522 -177666#4 -179466#4 -178150#1 -179407#1 -179587#1 -180146 -181312#1 --178641#3 --180841 --177735#3 --181669#14 -177561#0 -181300#2 --178056#1 --179268#2 -178686#3 --181177 --178566#0 -181017#3 -180614 --181480#2 -177727#2 -179778#5 -181387#1 --181227#0 --177925#5 -179681 -178982 -180532#0 --181075 --180390#0 -180941#2 -178428#1 --180006#1 -179881#4 --179744#2 -177807 --178831#1 --178263 -180214#0 -180610#0 -181236#3 -181026 --180665#4 --181111#4 --180999#0 -178898#12 -180106 --181111#1 -177748#0 --178136#2 --178743#1 -180746 --177484#1 --178007#1 --178940 --179526#2 --179575#1 --179400#0 -177953 -180160#0 --181546 --179039 -181028#1 --179703#0 --180221#2 --180755#1 --177376 --178593#0 -180586#27 --177994 --180108#0 -179576#0 -180579#0 --181634#0 -181638 -180229#0 --177925#1 -180153 -179025 -181081 -178152#1 --179373#1 -179275#0 --177667 -177624#5 -178533 --180373 --178456#2 -181650#0 -177639#0 --180114#0 -177692#3 -180801#1 -178667#1 --177488#0 -181253#0 -181504#0 --179450#0 --177666#3 -179788#0 --179220#1 --177621#0 -178057#19 -181669#9 -177504#5 -181300#0 -179094#2 -178016#0 --179547#1 --181076#2 -178704#3 --180272 -180595 -177541 -178491 -180816#0 -179907#0 -179929#2 -181414#2 --179394#1 --180939#2 -179466#11 -180988#2 -181457#3 -179651#17 --178235 --179929#1 -178367#8 --179669 -177979#0 --179623 -179284#1 --179400#2 -180988#0 --181350 --181490 -179191#4 -180002 --179289#0 -179093#1 --180051 -178145 -181494#1 --177991 -178633#4 -180586#3 -179284#8 -181313 -178428#0 -180945#3 --180430#0 -178870#0 -180665#4 -178539#3 --178150#0 -179062#1 -179778#0 -179134#1 -179649#1 --178632 -180150#1 --178456#3 --177710 --178237#12 --179638#1 -181197#0 --179682#1 -178410#0 -179284#3 -180987#1 -181377#3 -177854#0 -179778#4 -180280#0 --179926 -178311#4 --181076#1 -178237#11 --179890 -178650 --181311 -179083#3 -181312#3 --177918 --177484#3 --179972 --179143#1 --181494#4 -179585#0 -181436#0 --180283#2 -179221#0 --179587#5 -181566#1 -180961#4 --179575#2 -179482#1 -180283#1 --178064 -181598#1 --180977#1 -178025 --178456#1 --179879 -180755#1 -179823 -181117 -180842#0 --178633#2 --179216#0 -181395#1 -177748#1 --179311#2 -180584#0 -177639#3 -178607#4 --179895#2 -179869#0 -178410#1 -181524#2 -179691#4 -179400#0 -180477#4 --180928#0 -181134#0 -177753 -181149#2 -179345 -177972 --179222#4 -181658#0 --177407 --177308#2 --177970 --180419 --178850#1 --181384 -179268#1 -177790#1 -181076#1 -181017#6 --181669#7 -178109#1 -177499#2 --180665#1 --179962 -181114#1 -179307#2 --180173#0 --180928#1 --178408#6 -181118#1 -180586#22 --179802#1 -177803 -180945#1 --179558#6 --177639#2 -178059#2 -180006#1 -179307#0 -178607#1 -180280#1 --179569 --178082#1 -177727#1 -178367#10 -180040 -179738#3 --181100#0 -177407 -179651#19 -180586#26 -177793#1 --177911 -179463#1 --180471 --177622 --178319#3 -177925#5 -180832#0 -179935#0 -180724#0 --180153 --180832#0 --181149#0 -178007#0 -181662#1 -179343#1 -180419 -180832#1 -178575 --178739 -178016#1 -178864#2 --178613 -177916#1 -179638#0 -177676#0 -177404#2 -180574 --178671#1 -177922#2 --180692#0 -177985#1 -181234#1 --178570#1 -180644#0 -181159#0 -178214 --179572 -179034#3 -179185#1 -179946#1 -178818#1 --181377#4 --181319 -181377#4 --180977#0 -180987#2 -177515#2 -179892 -180928#2 --181662#1 --181524#4 -180577 -177484#1 --181201 --181366#1 --181585#1 -177926#3 --181268 --177308#1 -179744#0 -177933 --178916#1 -180283#2 -180496#0 --179482#1 -181039 -181660#1 -181669#5 --181118#1 -178671#1 -180586#24 -180644#1 -177738 --177933 --177707 -177548 -181659#2 -178671#0 -180298#0 -180947#0 --179363#1 -179168#1 -177383#1 -179778#1 --179290 --180578 --180539 -181366#0 -179220#1 -179400#6 -178743#0 --177666#2 -177989#2 -181268 -180789 --177639#3 -181566#4 --177460#0 -179143#0 -178311#5 -179808 --178200 -180072#0 -180285#3 -177834 --178933#2 -181054#0 --180987#0 -180077 --181221#2 -179676#1 -180837#1 --177460#1 --180987#3 --177727#2 -180264#0 -181028#4 -179455#3 -178539#2 --180631#2 -178367#0 -178162 -181387#0 --180939#0 --181142#0 --177815 -179118#2 -180446 -181524#0 -177761#2 --177417#1 -177994 -181163#2 -178319#0 -180950 -179967#1 -178385#3 --178491 --179222#3 -177727#3 -180477#3 --178818#0 --180945#2 -177846#1 -180992 --178237#3 --178061 --181330 --181100#1 --181234#2 -181170#0 --179394#0 --181605 --178244#0 -177912#3 -177387#0 -178016#2 --180656#1 --181164 -178597#0 -180559 -181363 --179170 --180230#0 -181111#3 --181307#7 --178137#1 --178194#1 -179252 --180610#1 -181177 --178566#1 -178064 --181524#0 -178503#1 --177827#1 --181054#1 -179778#3 --178633#4 --181157 --178082#0 -177463 -177957#7 --179565 --181669#0 --180348#0 --180250 -178416 -177521#2 -180610#1 -177988 -181659#1 -180656#2 -179558#5 --181669#9 --177880#0 --181234#3 --178311#1 --177912#3 -178970#4 -179455#2 --179895#4 -178407 -181028#5 --178730#3 -179464#0 -178200 -181412#3 --181170#2 -180549#0 -180504#1 -181412#1 --179464#1 --179252 --181377#6 -178940 -177989#0 -178194#1 -181660#6 --181377#9 -177827#0 -178526#1 -181643 -181524#4 -180991#1 -178061 --179711 --179869#0 --179238 -179847#1 -181609#1 --179083#4 -179284#2 --177421 -179217 --181253#1 --181264#2 -178016#4 --181513#1 -180051 -178969#0 -178641#2 -181264#1 -180586#17 -179343#2 --180053 -181377#8 -177624#8 --179625 -178655 -180792#1 --181307#5 --179808 -181118#3 --178618#1 --178686#5 --181574 --178539#4 --180110#0 -179997 -178296#4 --180656#2 --180532#1 -179691#3 --178896 -177957#9 --177406#1 --180579#0 -178766#1 --181139 -180941#3 -178561 -181134#1 -181054#1 --179373#2 --178457 --177434 -181034#1 -178237#12 --181176 --178407 --180644#1 -179638#1 --178935 -181662#2 -178686#5 -180301#0 -181616 -177706 --178539#3 -181359#1 -181471 -179744#5 -179284#9 -179186#0 -179558#1 -179895#0 -179333#2 --177370 -179802#1 --177352#2 -178730#4 -178311#0 -179576#2 --178686#6 --179858 -181681#4 -179400#4 -180285#0 -179367 --180669#0 -177728 -178558 --178607#4 --177926#3 --178394#0 -180285#1 --180184 --181234#1 -181659#0 -177639#4 -179268#2 -178520 --181111#2 -179569 -181485 --180298#1 --180746 --181471 -177468#1 -178526#9 -180659#0 -179851#2 -178269#1 -180248 --181299 --181312#4 -179360#1 -177308#1 --181524#1 --180150#1 -178426#1 --178735 --180504#1 -179466#8 -177916#3 -178593#1 -178410#3 -178367#6 -178933#0 -177697#2 -181377#6 --177979#1 --178607#3 -178056#0 --179919 -177805#1 -180071#1 -178439#1 --179482#0 --181221#3 -179284#4 --181302#1 --178585#0 -179752#0 --180173#2 --180218 --178152#1 -177671 --180532#0 -181159#1 --179587#4 -179343#0 --177916#5 --179558#7 -180158#0 --180002 --181170#3 -180928#1 --181302#0 --181591#1 -181457#5 -177406#0 -180023#1 -180341#1 --181034#1 -181114#0 -177854#1 --177321 --181118#2 -181513#0 -180280#2 -177662 --178575 -177383#2 -179083#4 -179471 -181669#1 --180796#2 -178410#6 --181064#2 -179929#0 -180381 --181363 -178020#6 -181170#1 -181299 --177692#2 --177926#0 --178809 -180586#0 -178296#0 --180871 -181170#2 --180881 --179802#0 --181359#1 --178641#0 -181319 --178336#0 --180631#0 -180964#1 --178109#1 --179744#0 -179744#7 -178284 -178033 -178704#4 -180504#0 --178983 -178864#0 --178244#1 -181111#1 -181149#1 -179738#2 -178751#1 --181264#1 -180285#2 --179217 -178697 -179472 -177558 -178809 -178590 --179143#0 -178892 -181131 -177891#0 -179787 --181428#1 --180721 --177811 --180173#3 --181669#12 -178410#4 -181389 --178109#0 -179744#6 --178933#4 --177468#1 -177639#1 -179744#2 -177308#2 -179284#7 --181111#3 --180504#0 -177624#1 -181524#1 -177911 -180280#3 -178057#21 --179455#2 -179778#2 -178832 -178298#1 --180160#0 -179967#2 -178568#1 -180333 -180665#0 --177950#1 -177505#0 --179286 --177666#1 --179083#0 --177727#0 -179260#0 --181149#2 -177925#6 -177516 -180107#2 --178831#0 -178408#0 --177727#1 --179714 -178060#0 -179395#4 -179466#1 --178150#1 --179867 --178189 -181216 -181061 --177636#0 -179881#2 --179778#2 -180496#3 --181480#0 --179558#0 -177736 -178970#2 -178137#0 -180390#4 -181227#1 -179407#2 -181380#0 --179744#7 -178570#0 -181692#2 -180357 -178898#9 -181598#0 --179248#2 -177661 -179046#0 --178367#6 --179248#1 --181420#0 -181227#2 --178060#0 --179935#1 --179275#0 -178597#1 --179179 -177925#4 -178885 --179778#4 -181300#1 -181367 --178173#1 -179062#2 --179638#0 --180905 -178864#3 -180430#0 --179587#3 -178818#0 -177419 -179818#0 --179185#1 --177639#4 -177815 -178155 -179220#0 --179185#0 --178007#0 -177698 -179377#0 -178633#2 -177383#0 -179191#3 -177925#3 -181412#5 --181300#0 --178561 --178818#1 --179343#1 --177539 -177846#0 -178152#0 -179585#1 --180796#1 -180597#1 --178568#0 -178166#1 -179575#2 -178358#2 -180120#0 --181494#1 -178623#0 --179260#0 --178567 --177419 -178686#9 --181227#1 -180961#0 --178319#1 --179086#1 -178483 --180301#1 --180277 -177957#2 --178166#0 -178933#2 -181256#2 -179851#1 --177671 --180298#3 -179222#0 --178686#10 --179907#1 -179097#3 -178933#4 -178456#3 -180665#2 --181609#1 -178846#0 --177916#4 --180121#1 -181209#3 --181566#2 --181670 --179778#1 --181383#1 -179343#3 -178623#1 --181669#3 -180173#2 -180277 -178367#2 -179359 --177379#0 -178571 -178449 -181163#1 -178613 --178408#5 --180390#2 -179895#1 -180586#25 -178503#2 -180878 -179847#0 --180221#0 -180006#0 -181300#4 -177701#0 -180961#1 --178925 -178915 -179341 --180999#2 --181307#3 --179424 --181359#2 -179558#2 --178585#1 --180988#2 -179642 -180009#0 -179086#0 -181681#3 -179526#1 -181170#3 -181289#0 -181377#7 -181669#0 -179424 -180107#1 -177957#5 -177629 --178136#1 -181033 -177438#1 --179851#2 -181520#0 --179907#0 --181289#0 -178898#11 -178132 --180238#0 -177460#1 -177761#3 -180905 -180999#2 --179400#3 -179558#3 -181337 -178992#3 --181081 --179485 -179186#1 -181383#1 --178846#1 --177881 --180832#3 --178850#2 -178020#3 --178815#1 --180947#1 -180221#1 -181302#3 --179400#4 -179547#0 --177521#2 --181566#0 -177481#13 -179360#2 -179788#1 -178831#0 -181142#0 -178237#3 -177515#1 -178367#7 -178500#0 --180331#2 -181546 --181566#1 -180987#3 --180928#2 -181221#0 -178898#3 --181377#7 -179575#1 --178539#2 --181377#3 --181420#1 --179455#1 -177521#0 -178197 -178059#0 -179946#0 --180114#1 -180941#4 -178456#1 -179651#20 -181111#2 --179778#3 -179395#1 -179942 -181669#10 -179651#14 --178933#1 -181457#2 --179046#0 -177872 --179083#2 -181163#3 -177621#0 --179411 --178885 --177891#1 -181264#2 -179839#1 --181609#0 -177957#0 -179638#2 -180847 -180816#1 --178686#7 -177484#0 -179744#4 --179748 -180469 -179682#0 --180597#0 -179466#5 --181380#0 -181017#4 -179062#0 --178597#0 -179649#0 -180151 --178607#0 --177484#0 --178166#1 --180230#3 --180549#1 -180586#19 -177504#6 --178060#1 --181504#0 --178336#1 -179651#15 -179450#1 --180595 -180424 -179651#16 -179485 --179134#1 -181658#1 -181412#0 -180087 -178137#1 --177912#4 --181591#0 -181383#0 --180755#0 -181494#2 -179890 --178194#3 --181264#4 -180423#1 -180477#2 --179248#0 --181142#2 -178539#4 -178925 --181234#0 -178014 -180108#0 --181414#1 --177553 -181338 --181135 --179558#3 --178410#0 -178898#7 --179946#0 -181076#2 -181386#0 --178585#3 -178358#1 -179283 --181359#0 --181307#0 -179197 -180430#1 --178152#2 -180390#3 --177516 --179766 -177733#0 --181524#2 -179093#0 -179284#5 --179895#0 --177438#0 -178751#4 --179986 -181457#1 --179946#1 --180659#3 --180928#4 -177957#10 -179222#2 -179450#0 --179847#0 --180988#1 -181412#2 --178570#0 -178618#1 -177697#5 -179935#1 -180586#14 -181307#3 --181377#8 -177666#3 -178057#25 --180271#0 -177926#1 -179275#2 -177622 -178517#1 --177827#0 -180936 -179363#1 -179818#1 --180576 -180939#2 -181302#2 --178408#3 --180006#0 -177624#7 --178010 -178391 --178014 --177950#2 -178916#1 -180631#1 -179058 -180331#1 --178730#4 -180390#5 -179785#0 --180315 -178967#0 --179220#0 --180639 --177872 -180264#2 -177666#2 --179339 --181023 -178516 -177438#2 -179926 -178173#1 -177434 -179168#0 -179719 -181264#6 -181042#5 -178570#1 -181166 --181302#2 -181366#3 -179117 -181566#0 -181554 --179526#1 --180945#1 -181311 -177523#1 -178541 -178721 -179572 --180040 -177791 -180129#0 -180268#0 -180973 --179186#1 --177541 -178528 --179638#2 -177507 -180941#5 --178428#0 -179623 --180381 --178237#6 --178056#0 --180120#1 -177561#2 -177733#1 --180631#1 -178870#1 -181163#4 --179343#0 --178832 -180721 -178460 --178367#5 --180756#0 --178394#1 -180669#1 -179287#2 -181307#0 -181118#2 -180586#16 -177925#8 --177343#0 -181420#1 -180653 -178633#1 --180792#1 --180842#0 -177912#1 -180244 -177504#3 -180296 -179587#5 -181662#0 -178194#3 -179156 --180947#0 -178644 --178541 --179575#0 -180498 --179873 -179248#2 --179839#1 --180614 --181131 -177417#0 --180296 --180913#1 --181035 --179335#0 -179216#0 -181111#5 -181289#1 -179136#1 -179307#3 -178736 -179691#6 --179046#1 --179185#2 --179367 --178152#0 -181629 -179738#1 --180945#3 --177692#3 -179221#1 --177701#1 --181504#1 -179867 --178410#6 -178667#0 --178025 --178585#2 --179134#0 -179881#3 -181149#0 --178730#0 -177343#0 --181117 --180597#1 -178010 -180221#2 -180355 -179311#1 -178930 -179631#1 --180151 -180665#1 --177950#3 --179785#0 -179339 -180390#0 --179307#3 --177793#0 -178649 -178898#4 -177468#0 --180792#0 -181632 -180023#0 --180214#0 --177807 -181264#3 --178686#0 -178237#4 -179869#1 -179972 -181028#0 --180390#4 -178190 --178137#2 -178933#1"/>
    <!-- id="-2036" name="Lissasfa Nord" -->