<?xml version="1.0" encoding="UTF-8"?>

<!-- Generated with SUMO Activity-Based Mobility Generator [https://github.com/lcodeca/SUMOActivityGen] -->

<routes xmlns:xsi="http://www.w3.org/2001/XMLSchema-instance" xsi:noNamespaceSchemaLocation="http://sumo.dlr.de/xsd/routes_file.xsd"> 
    <vehicle id="on-demand.0" type="on-demand" depart="0.0">
        <route edges="-168528"/>
        <stop lane="-168528_1" startPos="1.0" endPos="-1.0" triggered="person"/>
    </vehicle>
    <vehicle id="on-demand.1" type="on-demand" depart="0.0">
        <route edges="-167807#0"/>
        <stop lane="-167807#0_1" startPos="1.0" endPos="-1.0" triggered="person"/>
    </vehicle>
    <vehicle id="on-demand.2" type="on-demand" depart="0.0">
        <route edges="-166193#1"/>
        <stop lane="-166193#1_1" startPos="1.0" endPos="-1.0" triggered="person"/>
    </vehicle>
    <vehicle id="on-demand.3" type="on-demand" depart="0.0">
        <route edges="--167907#2"/>
        <stop lane="--167907#2_1" startPos="1.0" endPos="-1.0" triggered="person"/>
    </vehicle>
    <vehicle id="on-demand.4" type="on-demand" depart="0.0">
        <route edges="-165591"/>
        <stop lane="-165591_1" startPos="1.0" endPos="-1.0" triggered="person"/>
    </vehicle>
    <vehicle id="on-demand.5" type="on-demand" depart="0.0">
        <route edges="-166731#0"/>
        <stop lane="-166731#0_1" startPos="1.0" endPos="-1.0" triggered="person"/>
    </vehicle>
    <vehicle id="on-demand.6" type="on-demand" depart="0.0">
        <route edges="-168806#2"/>
        <stop lane="-168806#2_1" startPos="1.0" endPos="-1.0" triggered="person"/>
    </vehicle>
    <vehicle id="on-demand.7" type="on-demand" depart="0.0">
        <route edges="-169100#2"/>
        <stop lane="-169100#2_1" startPos="1.0" endPos="-1.0" triggered="person"/>
    </vehicle>
    <vehicle id="on-demand.8" type="on-demand" depart="0.0">
        <route edges="-167883"/>
        <stop lane="-167883_1" startPos="1.0" endPos="-1.0" triggered="person"/>
    </vehicle>
    <vehicle id="on-demand.9" type="on-demand" depart="0.0">
        <route edges="--166305#2"/>
        <stop lane="--166305#2_1" startPos="1.0" endPos="-1.0" triggered="person"/>
    </vehicle>
    <vehicle id="-1903_-1891_2_tr" type="passenger" depart="triggered">
        <route edges="-167036#5 -169443#8 -167174#0 -166220#1 -166220#2 -166220#3 -166220#4 -166220#5 -166220#6 -166220#7 -166220#9 -166220#11 -166220#12 -166220#13 -166220#14 -169583#0 -169583#1 -169583#2 -169583#3 -169583#4 -169583#5 -167923#0 -167923#1 -166267#0 -166267#1 -166267#2 -166267#3 -166267#4 -166267#5 -166267#6 -166267#7 -166267#8 -166267#9 -166267#10 -166267#11 -168059#0 -168059#1 -167942#0 -167942#1 -169179#1 -169179#3 -169179#4 -166583#0 -166948#0 --165568#4 --165568#3 --165568#2 -167138 --166534 --169286 --167835 --168048 --168471#10 --168471#9 --168471#8 --168471#6 --168471#4 --168471#3 --168471#1 -169268#0 -169268#1 -165258#0 -165258#1 -165258#2 -165258#3 -168174 -167071#0 -167071#1 -169172#1 -169172#2 -165851#1 -165851#2 -165851#3 -165851#4 -165851#5 -165851#6 -165851#7 -165851#8 -165851#9 -165851#10 -165851#11 -165851#12 -165851#14 -165851#16 -165851#17 -165851#18 -165851#19 --166637#1 --166637#0 --166914#2 --166914#1 -168871#4 -168871#5 -168871#6 -168044#0 -168044#1 -168044#3 -168044#4 -168044#5 -168044#6 -168044#7 -168044#8 -167036#5"/>
        <stop parkingArea="-587239" triggered="true" expected="-1903_-1891_2"/>
        <stop lane="-167036#5_1" duration="1.0"/>
    </vehicle>
    <person id="-1903_-1891_2" type="pedestrian" depart="20137.16">
        <ride from="-167036#5" to="-167138" arrivalPos="38.66" lines="-1903_-1891_2_tr"/>
        <walk edges="-167138 -165568#2 -165568#3 --169286" arrivalPos="25.115"/>
        <stop lane="--169286_0" duration="26058.508064242043" actType="P-Work"/>
        <walk edges="--169286 --166534 -167138" arrivalPos="38.66"/>
        <ride from="-167138" to="-167036#5" arrivalPos="17.317936732008228" lines="-1903_-1891_2_tr"/>
        <stop lane="-167036#5_0" duration="1.0" actType="Home"/>
    </person>
    <vehicle id="-1891_-1891_5_tr" type="passenger" depart="triggered">
        <route edges="-167918 -169460 -165258#1 -165258#2 -165258#3 -168174 -168800#1 -168270 -165825#0 -165825#1 -165825#2 -165825#3 -165589#1 -165589#2 -165589#5 -165589#6 -167273#1 -167273#2 -166484#3 -165489#4 -165489#5 -165489#6 -165489#7 -166386#0 -166386#1 -166386#2 -166386#3 -167827#1 -166267#0 -166267#1 -166267#2 -166267#3 -166267#4 -166267#5 -166267#6 -166267#7 -166267#8 -166267#9 -166267#10 -166267#11 -168059#0 -168059#1 -166421 -167918"/>
        <stop parkingArea="-583877" triggered="true" expected="-1891_-1891_5"/>
        <stop lane="-167918_1" duration="1.0"/>
    </vehicle>
    <person id="-1891_-1891_5" type="pedestrian" depart="21624.21">
        <ride from="-167918" to="-166484#3" arrivalPos="90.3963726598337" lines="-1891_-1891_5_tr"/>
        <walk edges="-166484#3 -166484#2" arrivalPos="48.795"/>
        <stop lane="-166484#2_0" duration="30845.891685685703" actType="P-Work"/>
        <walk edges="-166484#2 -166484#3" arrivalPos="90.3963726598337"/>
        <ride from="-166484#3" to="-167918" arrivalPos="53.24045002999255" lines="-1891_-1891_5_tr"/>
        <stop lane="-167918_0" duration="1.0" actType="Home"/>
    </person>
    <vehicle id="-1903_-1903_4_tr" type="passenger" depart="triggered">
        <route edges="-167036#5 -169443#8 -167174#0 -167314#0 -167314#1 -167528#10 -168883#8 -168883#9 -168883#10 -168883#11 -168883#12 -169404#11 -169404#12 -169404#13 -169404#14 -169404#15 -169404#16 -169404#17 -169404#18 -166328#1 -166328#2 -166328#3 -167220 -168044#0 -168044#1 -168044#3 -168044#4 -168044#5 -168044#6 -168044#7 -168044#8 -167036#5"/>
        <stop parkingArea="-594989" triggered="true" expected="-1903_-1903_4"/>
        <stop lane="-167036#5_1" duration="1.0"/>
    </vehicle>
    <person id="-1903_-1903_4" type="pedestrian" depart="21919.81">
        <ride from="-167036#5" to="-168883#11" arrivalPos="55.56" lines="-1903_-1903_4_tr"/>
        <walk edges="-168883#11 -168883#12 -169404#11 -167927#0 -167927#1 -167927#2 -167927#3 -166017#2 -169404#16 -169404#17 -169404#18 -169530#2 -166444#6 -166444#5 -166444#4 -166444#3 -165427#4 --169041#1 --169041#2 --169041#3 --169041#4 -169041#5" arrivalPos="34.19"/>
        <stop lane="-169041#5_0" duration="29971.41860279212" actType="P-Work"/>
        <walk edges="-169041#5 -169041#4 -169041#3 -169041#2 -169041#1 -169041#0 -166444#2 -166444#3 -166444#4 -166444#5 -166444#6 -169530#2 -169404#18 -169404#17 -167927#4 -167927#3 -167927#2 -167927#1 -167927#0 -169404#11 -168883#12 -168883#11" arrivalPos="55.56"/>
        <ride from="-168883#11" to="-167036#5" arrivalPos="79.31999769698186" lines="-1903_-1903_4_tr"/>
        <stop lane="-167036#5_0" duration="1.0" actType="Home"/>
    </person>
    <vehicle id="-1919_-1919_45_tr" type="passenger" depart="triggered">
        <route edges="-167583#2 -167583#4 -168033#4 -168033#5 -168033#6 -168033#7 -168631#0 -168631#1 -167616#0 -167616#1 -167614#1 -167614#2 -167614#3 --165799#2 --169359#1 --169480#4 --167390#1 --167390#0 --168168#1 -169359#0 -169359#1 -165799#2 -169307#0 -169307#1 -169307#2 -167337 -167987#0 -167987#1 -167987#2 -167987#3 -167987#4 -167987#5 -165482#0 -165482#1 -165482#2 -165482#3 -167322#0 -167322#1 -167322#2 -166978 -166173#0 -166173#1 -166173#2 -166173#3 -166173#4 -166173#5 -166173#6 -166173#7 -169352#0"/>
        <stop parkingArea="-593198" triggered="true" expected="-1919_-1919_45"/>
        <stop lane="-169352#0_1" duration="1.0"/>
    </vehicle>
    <person id="-1919_-1919_45" type="pedestrian" depart="22236.72">
        <ride from="-167583#2" to="--167390#0" arrivalPos="12.5" lines="-1919_-1919_45_tr"/>
        <walk edges="--167390#0 --168168#1 --168168#0 -169131#1 -165958#0 -167231#1" arrivalPos="25.07"/>
        <stop lane="-167231#1_0" duration="29073.87242626909" actType="P-Work"/>
        <walk edges="-167231#1 --169153#1 --169153#0 -169394#7 -169131#1 --168168#0 --168168#1 --167390#0" arrivalPos="12.5"/>
        <ride from="--167390#0" to="-169352#0" arrivalPos="157.27" lines="-1919_-1919_45_tr"/>
        <walk edges="-167583#2" arrivalPos="65.81426916413288"/>
        <stop lane="-167583#2_0" duration="1.0" actType="Home"/>
    </person>
    <vehicle id="-1903_-1897_5_tr" type="passenger" depart="triggered">
        <route edges="--165866#0 -167763#0 -167763#1 -167763#2 -168652#8 -168652#9 -168652#12 -168652#13 -165688#6 -165688#7 -165688#8 -165688#9 -165688#10 -165688#11 -165688#12 -165688#13 -169110#8 -169110#9 -169110#10 -169380#0 -168720#1 -167658 -168436#0 -168436#2 -169508 -166623#0 -166623#1 -166623#2 -166623#3 -166623#4 -166720#1 -166720#2 -166720#3 -166720#5 --167766#5 --167766#4 --167766#3 --167766#2 --167766#1 --167766#0 --166996#13 --166996#12 --166996#11 --166996#10 --166996#9 --166996#8 --166996#7 --166996#6 -166704#0 -166704#1 -166704#2 -166704#4 -166704#5 -166704#6 -166704#7 -168809#0 --167818#1 --167818#0 --168791#2 -169444#0 -169444#2 -168715#1 -168715#2 -168715#3 --166704#1 --166704#0 -166996#6 -166996#7 -166996#8 -166996#9 -166996#10 -166996#11 -166996#12 -166996#13 -167766#0 -167766#1 -167766#2 -167766#3 -167766#4 -167766#5 -166562#0 -166512 -166840#2 -166840#3 -166840#4 -166840#5 -166840#6 -165395#0 -165395#1 -167855 -167161#1 -167161#2 -167161#3 -167161#4 -167161#7 -167161#8 -167161#9 --165866#3 --165866#2 --165866#1 --165866#0"/>
        <stop parkingArea="-584333" triggered="true" expected="-1903_-1897_5"/>
        <stop lane="--165866#0_1" duration="1.0"/>
    </vehicle>
    <person id="-1903_-1897_5" type="pedestrian" depart="22447.55">
        <ride from="--165866#0" to="--167818#0" arrivalPos="12.5" lines="-1903_-1897_5_tr"/>
        <walk edges="--167818#0 --165738#5 --165738#3 --165738#2 --165738#1 --165738#0 --169381 -169018#4 --165686#0 -168668" arrivalPos="53.65"/>
        <stop lane="-168668_0" duration="25885.786898491762" actType="P-Work"/>
        <walk edges="-168668 --165686#0 --169018#4 --169381 --165738#0 --165738#1 --165738#2 --165738#3 --165738#5 --167818#0" arrivalPos="12.5"/>
        <ride from="--167818#0" to="--165866#0" arrivalPos="145.04474206252786" lines="-1903_-1897_5_tr"/>
        <stop lane="--165866#0_0" duration="1.0" actType="Home"/>
    </person>
    <vehicle id="-1932_-1891_2_tr" type="passenger" depart="triggered">
        <route edges="--167635#2 --167635#1 --167635#0 -167635#0 -167635#1 -167635#2 -167635#3 -166145#2 -166145#3 -166145#4 -166145#5 -166145#7 -166145#8 -166145#9 -166145#10 -166145#11 -166145#12 -166145#13 -166145#14 -168340#0 -168059#0 -168059#1 -167942#0 -167942#1 -165683#1 --167505#1 --167505#0 --167807#8 --167807#7 --167807#6 --167807#5 --167807#4 --167807#3 --167807#2 --167807#1 --167807#0 -165362#2 -169264#1 -168176#9 -169479#1 -169479#2 -169479#3 -166762#0 -166762#1 -166762#2 -165340 -169347#0 -169347#1 -166160 -165886#0 -165886#1 -168917#0 -168917#1 -168917#2 -165704#0 -165704#1 -168445#0 -168445#1 --169264#1 --169264#0 -167807#0 -167807#1 -167807#2 -167807#3 -167807#4 -167807#5 -167807#6 -167807#7 -167807#8 -167505#0 -167505#1 --165683#1 --167942#1 --167942#0 --168059#1 --168059#0 -168105#4 --166145#14 --166145#13 --166145#12 --166145#11 --166145#10 --166145#9 --166145#8 --166145#7 --166145#5 --166145#4 --166145#3 --166145#2 --167635#3 --167635#2"/>
        <stop parkingArea="-599350" triggered="true" expected="-1932_-1891_2"/>
        <stop lane="--167635#2_1" duration="1.0"/>
    </vehicle>
    <person id="-1932_-1891_2" type="pedestrian" depart="22991.87">
        <ride from="--167635#2" to="-166762#2" arrivalPos="12.5" lines="-1932_-1891_2_tr"/>
        <walk edges="-166762#2 --168583#0 --167204#1 --167204#0 --165304#5 --165304#4 --165304#2 --165304#1 --165304#0 --169195#1 --169195#0 --168903#1 --168903#0" arrivalPos="29.085"/>
        <stop lane="--168903#0_0" duration="31482.250372170416" actType="P-Work"/>
        <walk edges="--168903#0 --168903#1 --169195#0 --169195#1 --165304#0 --165304#1 --165304#2 --165304#4 --165304#5 --167204#0 --167204#1 --168583#0 -166762#2" arrivalPos="12.5"/>
        <ride from="-166762#2" to="--167635#2" arrivalPos="13.094608234791394" lines="-1932_-1891_2_tr"/>
        <stop lane="--167635#2_0" duration="1.0" actType="Home"/>
    </person>
    <vehicle id="-1891_-1891_0_tr" type="passenger" depart="triggered">
        <route edges="--169165#2 --169165#1 -167483 --167782#0 -165825#0 -165825#1 -165825#2 -165825#3 -165589#1 -165589#2 -165589#5 -165589#6 -168230#2 -168230#3 -165346 -168397#0 -168397#1 -168397#2 -168397#5 -167396#0 -167396#1 -167396#2 -168359#1 -169479#1 -169479#2 -169479#3 -166762#0 -166762#1 -166762#2 -168218#0 -168218#1 -168218#2 -168218#3 -165843#1 -165843#2 -167345#1 -167345#2 -167345#3 -166279#0 -166279#1 -166279#2 -166736#0 -166736#1 -165728#0 -165728#1 -165728#2 -165728#3 -165728#4 -165361#0 -165361#1 -165361#2 -168587#0 -168587#1 -165489#0 -165489#1 -165489#2 -165489#3 -165489#4 -165489#5 -165489#6 -165489#7 -166032#1 --166331#1 --166331#0 --169165#3 --169165#2"/>
        <stop parkingArea="-599350" triggered="true" expected="-1891_-1891_0"/>
        <stop lane="--169165#2_1" duration="1.0"/>
    </vehicle>
    <person id="-1891_-1891_0" type="pedestrian" depart="23002.7">
        <ride from="--169165#2" to="-166762#2" arrivalPos="12.5" lines="-1891_-1891_0_tr"/>
        <walk edges="-166762#2 -166762#1 --168833#1 -165835#0 -166283#0 --167172 -167511#0 -167511#1 -169533#2 -169533#3" arrivalPos="51.715"/>
        <stop lane="-169533#3_0" duration="26393.425371649573" actType="P-Work"/>
        <walk edges="-169533#3 -169533#2 -167511#1 -167511#0 -167172 -166283#0 -165835#0 --168833#1 -166762#1 -166762#2" arrivalPos="12.5"/>
        <ride from="-166762#2" to="--169165#2" arrivalPos="31.63718334128373" lines="-1891_-1891_0_tr"/>
        <stop lane="--169165#2_0" duration="1.0" actType="Home"/>
    </person>
    <vehicle id="-1949_-1891_0_tr" type="passenger" depart="triggered">
        <route edges="-169270 -165437#3 -165437#4 -165437#5 -165437#6 -169131#0 -169131#1 -167891#3 -167891#4 -167891#5 -167891#6 -167891#7 -167891#8 -166597#1 -165843#1 -165843#2 -168359#1 -168445#0 -168445#1 --169264#1 --169264#0 -167807#0 -167807#1 -167807#2 -167807#3 -167807#4 -167807#5 -167807#6 -167807#7 -167807#8 -167505#0 -167505#1 --165683#1 --167942#1 --167942#0 --168059#1 --167540#2 --167540#1 --167540#0 -169460 -165258#1 -165258#2 -165258#3 -168174 -168800#1 -168270 -165825#0 -165825#1 -165825#2 -165825#3 -165589#1 -165589#2 -165589#5 -165589#6 -168230#2 -168230#3 -167346#0 -167346#1 -165680#1 -165680#2 -165728#0 -165728#1 -165728#2 -165566#0 -165566#1 -165566#2 -165566#3 -165566#4 -165566#5 -165566#11 -165775 -169049#3 -169049#4 -169049#5 -169049#6 -167677 -165437#0 -165437#1 -165437#2"/>
        <stop parkingArea="-598091" triggered="true" expected="-1949_-1891_0"/>
        <stop lane="-165437#2_1" duration="1.0"/>
    </vehicle>
    <person id="-1949_-1891_0" type="pedestrian" depart="23196.41">
        <ride from="-169270" to="--167540#1" arrivalPos="12.5" lines="-1949_-1891_0_tr"/>
        <walk edges="--167540#1 --167540#2 --168059#1 --166421 -168611" arrivalPos="35.015"/>
        <stop lane="-168611_0" duration="29181.386425696004" actType="P-Work"/>
        <walk edges="-168611 --167918 --167540#0 --167540#1" arrivalPos="12.5"/>
        <ride from="--167540#1" to="-165437#2" arrivalPos="104.03" lines="-1949_-1891_0_tr"/>
        <walk edges="-169270" arrivalPos="124.63618604280381"/>
        <stop lane="-169270_0" duration="1.0" actType="Home"/>
    </person>
    <vehicle id="-1919_-1919_54_tr" type="passenger" depart="triggered">
        <route edges="--166627 --169056#2 --169056#1 -165482#3 -167322#0 -167322#1 -167322#2 -166978 -166173#0 -166173#1 --166364#8 --166364#5 --166364#4 --167689#1 --167689#0 -166176#3 -166176#4 -166176#5 --166176#5 --166176#4 --166176#3 --166176#2 --166176#1 -167427#1 -167427#2 -167427#3 --166125#1 --166125#0 -167490#2 -167490#3 -167779#0 -167779#1 -166601#0 -166601#2 -167136 -167140#0 -167140#1 -167614#1 -167614#2 --166627"/>
        <stop parkingArea="-599543" triggered="true" expected="-1919_-1919_54"/>
        <stop lane="--166627_1" duration="1.0"/>
    </vehicle>
    <person id="-1919_-1919_54" type="pedestrian" depart="23218.81">
        <ride from="--166627" to="-166176#3" arrivalPos="46.28" lines="-1919_-1919_54_tr"/>
        <walk edges="-166176#3 --166176#3" arrivalPos="31.89"/>
        <stop lane="--166176#3_0" duration="31205.726685612008" actType="P-Work"/>
        <walk edges="--166176#3 -166176#3" arrivalPos="46.28"/>
        <ride from="-166176#3" to="--166627" arrivalPos="42.60923524818377" lines="-1919_-1919_54_tr"/>
        <stop lane="--166627_0" duration="1.0" actType="Home"/>
    </person>
    <vehicle id="-1903_-1903_19_tr" type="passenger" depart="triggered">
        <route edges="-168951#13 -168951#14 -168951#15 -167528#14 -167528#15 -167528#16 -167528#17 -167528#18 -167528#19 -167528#20 -169172#4 -165557#0 -165557#1 -165557#2 -165557#3 -165557#4 -168741#0 -168741#1 -168741#2 -168741#4 -168741#5 -168741#6 -168741#7 -168741#8 -168741#9 -168741#14 -168741#15 -168741#16 -168741#17 -168165#2 -168165#3 -168951#1 -168951#2 -166122#0 -166122#1 -166122#2 -166122#3 -166122#4 -166122#5 -168951#7 -168951#11 -168951#12 -168951#13"/>
        <stop parkingArea="-591408" triggered="true" expected="-1903_-1903_19"/>
        <stop lane="-168951#13_1" duration="1.0"/>
    </vehicle>
    <person id="-1903_-1903_19" type="pedestrian" depart="23238.34">
        <ride from="-168951#13" to="-168741#16" arrivalPos="12.5" lines="-1903_-1903_19_tr"/>
        <walk edges="-168741#16 -168995#3 -168995#4 -165263#4 -168546#11 -166730#2 -166730#1 -166730#0 -167090#1 -169151#1 -168344 -168197 -166756 -166842 -167928#1 -165758#7 -168980#1" busStop="-599418"/>
        <walk edges="-168889#9 -168889#8 -165490 --169371#0" arrivalPos="56.45"/>
        <stop lane="--169371#0_0" duration="32192.499131354376" actType="P-Work"/>
        <walk edges="--169371#0 -165490 -168889#8 -168889#9" busStop="-599418"/>
        <walk edges="-168980#1 -165758#7 -167928#1 -166842 -166756 -168197 -168344 -169151#1 -167090#1 -166730#0 -166730#1 -166730#2 -168546#11 -165263#4 -168995#4 -165760#1 -168741#16" arrivalPos="12.5"/>
        <ride from="-168741#16" to="-168951#13" arrivalPos="51.991158035212834" lines="-1903_-1903_19_tr"/>
        <stop lane="-168951#13_0" duration="1.0" actType="Home"/>
    </person>
    <vehicle id="-1932_-1932_10_tr" type="passenger" depart="triggered">
        <route edges="--167567#2 -166738#2 -166738#3 -168597#3 -168597#4 -168597#5 -168597#6 -166145#7 -166145#8 -166145#9 -166145#10 -166145#11 -166145#12 -166145#13 -166145#14 -168340#0 -165258#0 -165258#1 -165258#2 -165258#3 -168174 -167071#0 -167071#1 -169172#1 -169172#2 -169172#4 -165557#0 -165557#1 -165557#2 -165557#3 -165557#4 -168741#0 -168741#1 -168741#2 -165256#1 -165256#2 -165256#3 --165866#3 --165866#2 --165866#1 -168228 -168210#2 -168165#9 -168165#10 -168165#11 -168165#12 -169583#0 -169583#1 -169583#2 -169583#3 -169583#4 -169583#5 -167923#0 -167923#1 -166267#0 -166267#1 -166267#2 -166267#3 -166267#4 -166267#5 -166267#6 -166267#7 -166267#8 -166267#9 -166267#10 -166267#11 -168105#4 --166145#14 --166145#13 --166145#12 --166145#11 --166145#10 --166145#9 --166145#8 --166145#7 --166145#5 --166145#4 --166145#3 --166145#2 --166145#1 --166145#0 -168577#0 --166224 --167567#4 --167567#3 --167567#2"/>
        <stop parkingArea="-593750" triggered="true" expected="-1932_-1932_10"/>
        <stop lane="--167567#2_1" duration="1.0"/>
    </vehicle>
    <person id="-1932_-1932_10" type="pedestrian" depart="23485.01">
        <ride from="--167567#2" to="--165866#3" arrivalPos="97.83" lines="-1932_-1932_10_tr"/>
        <walk edges="--165866#3 --165866#5 --165866#6 --165866#7 -169110#2 -169110#1 -167923#0 -167923#1 -166267#0 -166267#1 -168539 -167321#2 --167795#14 --167795#13 --167795#11 --167795#10 --167795#9 --167795#8 --167795#7 --166222#5 --166222#6 -167542#5 -167542#4 -167542#2 -167542#1 -167542#0 -168067#0 -165385 -169378#1 --167124#0 -165749#1 -165749#0 --166671#3 --166671#5 --166671#6 -168597#9 --165732" arrivalPos="59.25"/>
        <stop lane="--165732_0" duration="30641.384728334368" actType="P-Work"/>
        <walk edges="--165732 -168597#9 --166671#6 --169096 --168207#1 --166455#0 --167617 --167261#2 --168873#0 -168986#3 -168986#2 -168986#1 --167670#1 --167670#2 --167670#3 --167670#4 --167670#5 --167670#6 -168208#4 -168208#3 --166830 --166222#0 -168312#0 --165947#1 -166144#10 -165846 -165217#7 -165217#8 -169555#0 --165866#6 --165866#5 --165866#3" arrivalPos="97.83"/>
        <ride from="--165866#3" to="--167567#2" arrivalPos="54.208692491231794" lines="-1932_-1932_10_tr"/>
        <stop lane="--167567#2_0" duration="1.0" actType="Home"/>
    </person>
    <vehicle id="-1932_-1932_31_tr" type="passenger" depart="triggered">
        <route edges="-168886#1 -169188 --166343#0 --168919 --167527 --167458#5 --167458#4 -166145#9 -166145#10 -166145#11 -166145#12 -166145#13 -166145#14 -168340#0 -165240#0 -165240#1 -165240#2 -165240#3 -165240#4 -167097#0 -168666 -166200#1 -166200#2 -165776 -166635#2 -165581#0 -169108 -167117#0 -167117#1 -167117#2 -166858#0 -166858#1 -166858#2 -169268#0 -169268#1 -168105#4 --166145#14 --166145#13 --166145#12 --166145#11 --166145#10 --166145#9 -167458#4 -167458#5 -167458#6 -166671#1 -166671#2 -165749#0 -166501 -168886#0 -168886#1"/>
        <stop parkingArea="-598784" triggered="true" expected="-1932_-1932_31"/>
        <stop lane="-168886#1_1" duration="1.0"/>
    </vehicle>
    <person id="-1932_-1932_31" type="pedestrian" depart="23521.33">
        <ride from="-168886#1" to="-166200#2" arrivalPos="12.5" lines="-1932_-1932_31_tr"/>
        <walk edges="-166200#2 -166200#1 -166200#0 -167117#0 -165963#1 -165963#0 -166635#2" arrivalPos="109.225"/>
        <stop lane="-166635#2_0" duration="26543.302070271744" actType="P-Work"/>
        <walk edges="-166635#2 -165776 -166200#2" arrivalPos="12.5"/>
        <ride from="-166200#2" to="-168886#1" arrivalPos="25.472546567223354" lines="-1932_-1932_31_tr"/>
        <stop lane="-168886#1_0" duration="1.0" actType="Home"/>
    </person>
    <vehicle id="-1949_-1903_0_tr" type="passenger" depart="triggered">
        <route edges="-169307#1 -169307#2 -167337 -167987#0 -167987#1 -167987#2 -167987#3 -167987#4 -167987#5 -169329#0 -169329#1 -169329#5 -169329#9 -169329#10 -169329#11 -169329#12 -169329#13 -165728#4 -165361#0 -165361#1 -165361#2 -168587#0 -168587#1 -165489#0 -165489#1 -165489#2 -165489#3 -165489#4 -165489#5 -165489#6 -165489#7 -166386#0 -166386#1 -166386#2 -166386#3 -167827#1 -169172#1 -169172#2 -169172#4 -165557#0 -165557#1 -165557#2 -165557#3 -165557#4 -168741#0 -168741#1 -168741#2 -165256#1 -165256#2 -165256#3 --165866#3 --165866#2 --165866#1 -168228 -168210#2 -168165#9 -168165#10 -168165#11 -168165#12 -169583#0 -169583#1 -169583#2 -169583#3 -169583#4 -169583#5 -167923#0 -167923#1 -165535#4 -168270 -165825#0 -165825#1 -165825#2 -165825#3 -165589#1 -165589#2 -165589#5 -165589#6 -168230#2 -168230#3 -165346 -168397#0 -168397#1 -168397#2 -168397#5 -167396#0 -167396#1 -167396#2 -168400#2 -168400#3 -168400#4 -168400#5 -169394#1 -169394#2 -169394#3 -169394#4 -169394#5 -169394#6 -169394#7 -165792#0 -165792#1 -169307#0 -169307#1"/>
        <stop parkingArea="-593750" triggered="true" expected="-1949_-1903_0"/>
        <stop lane="-169307#1_1" duration="1.0"/>
    </vehicle>
    <person id="-1949_-1903_0" type="pedestrian" depart="24076.2">
        <ride from="-169307#1" to="--165866#3" arrivalPos="97.83" lines="-1949_-1903_0_tr"/>
        <walk edges="--165866#3 -167161#9 -167161#8 -167161#7 -166694#0 -169555#5 -168070#1 -169197#1" arrivalPos="90.21"/>
        <stop lane="-169197#1_0" duration="26744.3995912955" actType="P-Work"/>
        <walk edges="-169197#1 -168070#1 -169555#5 -166694#0 -167161#7 -167161#8 -167161#9 --165866#3" arrivalPos="97.83"/>
        <ride from="--165866#3" to="-169307#1" arrivalPos="61.04041142215539" lines="-1949_-1903_0_tr"/>
        <stop lane="-169307#1_0" duration="1.0" actType="Home"/>
    </person>
    <vehicle id="-1903_-1903_3_tr" type="passenger" depart="triggered">
        <route edges="-168924#4 --168419#1 -169352#4 -167528#2 -167528#5 -167528#7 -167528#9 -167528#10 -168883#8 -168883#9 -168883#10 -168883#11 -168883#12 -169404#11 -169404#12 -169404#13 -169404#14 -169404#15 -169404#16 -169404#17 -169404#18 -166328#1 -166328#2 -166328#3 -169009#0 -169009#1 -169009#2 -169009#3 -169009#4 -169009#5 -169009#6 -168963#0 --168921 -168924#3 -168924#4"/>
        <stop parkingArea="-594989" triggered="true" expected="-1903_-1903_3"/>
        <stop lane="-168924#4_1" duration="1.0"/>
    </vehicle>
    <person id="-1903_-1903_3" type="pedestrian" depart="24473.34">
        <ride from="-168924#4" to="-168883#11" arrivalPos="55.56" lines="-1903_-1903_3_tr"/>
        <walk edges="-168883#11 -168883#12 -169404#11 -167927#0 -167927#1 -167927#2 -167927#3 -166017#2 -169404#16 -169404#17 -169404#18 -169530#2 -166444#6 -166444#5 -166444#4 -166444#3 -165427#4 --169041#1 --169041#2 --169041#3 --169041#4 -169041#5" arrivalPos="34.19"/>
        <stop lane="-169041#5_0" duration="28123.243536215025" actType="P-Work"/>
        <walk edges="-169041#5 -169041#4 -169041#3 -169041#2 -169041#1 -169041#0 -166444#2 -166444#3 -166444#4 -166444#5 -166444#6 -169530#2 -169404#18 -169404#17 -167927#4 -167927#3 -167927#2 -167927#1 -167927#0 -169404#11 -168883#12 -168883#11" arrivalPos="55.56"/>
        <ride from="-168883#11" to="-168924#4" arrivalPos="37.57586502372737" lines="-1903_-1903_3_tr"/>
        <stop lane="-168924#4_0" duration="1.0" actType="Home"/>
    </person>
    <vehicle id="-1891_-1949_2_tr" type="passenger" depart="triggered">
        <route edges="-169165#2 --169513#0 -165825#1 -165825#2 -165825#3 -165589#1 -165589#2 -165589#5 -165589#6 -168230#2 -168230#3 -167346#0 -167346#1 -165680#1 -165680#2 -165728#0 -165728#1 -165728#2 -165566#0 -165566#1 -165566#2 -165566#3 -165566#4 -165566#5 -165566#11 -165566#12 -165566#13 -165482#0 -165482#1 -165482#2 -165482#3 -167322#0 -167322#1 -167322#2 -166978 -166173#0 -166173#1 --166364#8 -167895 --167895 -166364#7 -166173#2 -166173#3 -166173#4 -166173#5 -166173#6 -166173#7 -169352#0 -169352#2 -169352#4 -167528#2 -167528#5 -167528#7 -167528#9 -167528#10 -167528#12 -168951#19 -168088#0 -168088#1 -168951#21 -168951#22 -166484#1 -166484#2 -166484#3 -165489#4 -165489#5 -165489#6 -165489#7 -166032#1 --166331#1 --166331#0 --169165#3"/>
        <stop parkingArea="-597533" triggered="true" expected="-1891_-1949_2"/>
        <stop lane="--169165#3_1" duration="1.0"/>
    </vehicle>
    <person id="-1891_-1949_2" type="pedestrian" depart="24528.39">
        <ride from="-169165#2" to="--166364#8" arrivalPos="118.53999999999999" lines="-1891_-1949_2_tr"/>
        <walk edges="--166364#8 -166173#1 -166188#5 -167322#1 -167322#0 -167616#1 -167616#0 -168631#1 -165632#2 -165632#1" arrivalPos="290.155"/>
        <stop lane="-165632#1_0" duration="30248.48153737855" actType="P-Work"/>
        <walk edges="-165632#1 -168033#6 -168033#7 -168631#0 -168631#1 -167616#0 -167616#1 -167322#0 -167322#1 -167322#2 -166978 -166173#0 -166173#1 --166364#8" arrivalPos="118.53999999999999"/>
        <ride from="--166364#8" to="--169165#3" arrivalPos="86.41" lines="-1891_-1949_2_tr"/>
        <walk edges="-169165#2" arrivalPos="41.840152033590584"/>
        <stop lane="-169165#2_0" duration="1.0" actType="Home"/>
    </person>
    <vehicle id="-1919_-1949_3_tr" type="passenger" depart="triggered">
        <route edges="-165313#2 -165313#3 -165313#4 -165267#0 -165267#1 -167552 -167070#0 -167070#1 -167136 -167140#0 -167140#1 -167322#0 -167322#1 -167322#2 -166978 -166173#0 -166173#1 --166364#8 --166364#5 --166364#4 --166364#3 -167427#0 -167427#1 -167427#2 -167427#3 --166125#1 --166125#0 -167490#2 -167490#3 -167779#0 -167779#1 -166601#0 -166601#2 -167136 -167140#0 -167140#1 -166415#0 -166415#1 -166415#2 -169049#1 -169049#2 -169049#3 -169049#4 -169049#5 -169049#6 -167677 -165437#0 -165437#1 -165437#2 -165437#3 -165437#4 -165437#5 -165437#6 -165313#0 -165313#1 -165313#2"/>
        <stop parkingArea="-597533" triggered="true" expected="-1919_-1949_3"/>
        <stop lane="-165313#2_1" duration="1.0"/>
    </vehicle>
    <person id="-1919_-1949_3" type="pedestrian" depart="24625.88">
        <ride from="-165313#2" to="--166364#8" arrivalPos="118.53999999999999" lines="-1919_-1949_3_tr"/>
        <walk edges="--166364#8 -166173#1 -166188#5 -167322#1 -167322#0 -167616#1 -167616#0 -168631#1 -165632#2 -165632#1" arrivalPos="290.155"/>
        <stop lane="-165632#1_0" duration="30074.9742208237" actType="P-Work"/>
        <walk edges="-165632#1 -168033#6 -168033#7 -168631#0 -168631#1 -167616#0 -167616#1 -167322#0 -167322#1 -167322#2 -166978 -166173#0 -166173#1 --166364#8" arrivalPos="118.53999999999999"/>
        <ride from="--166364#8" to="-165313#2" arrivalPos="46.29909792466217" lines="-1919_-1949_3_tr"/>
        <stop lane="-165313#2_0" duration="1.0" actType="Home"/>
    </person>
    <vehicle id="-1903_-1932_8_tr" type="passenger" depart="triggered">