<?xml version="1.0" encoding="UTF-8"?>

<!-- generated on 2025-08-27 00:17:53.594448 by scenarioFromOSM.py UNKNOWN
  options: <doubleminus>osm H2ST9_cp.osm <doubleminus>out episode2_test2 <doubleminus>admin-level 10 <doubleminus>population 1000 <doubleminus>local-defaults <doubleminus>from-step 1
-->

<tazs xmlns:xsi="http://www.w3.org/2001/XMLSchema-instance" xsi:noNamespaceSchemaLocation="http://sumo.dlr.de/xsd/taz_file.xsd">
    <!-- id="-1891" name="Oulfa" -->
    <taz id="-1891" edges="-168012 --167326 --167907#0 --168696#0 --168813#2 -165227#1 --167807#8 --166442#2 --166193#1 -166968#0 -168609#2 --168863#0 --165567#1 --167881#5 --168867#1 --165413#0 --169566#0 -169361#0 -168743#0 -167767#5 -169142#0 -167774#0 -169180 -168311#1 -169553#2 -167273#2 -165404#10 -165765#3 -165777#1 -165951 --167604#1 -167758#1 --168326 --165629 -167594#0 -169165#3 -169115#1 --165842 --167188#0 -169368#0 --168489#1 --165553#0 --168543#2 -167942#1 -168471#4 -166076#0 -165224#2 -167646#0 -165392#24 -165247#1 --167188#5 -165937#1 --167758#2 --168059#0 --167094#3 -168467#0 --168241#4 --166612#12 --167489#0 -168457 -167807#7 -166922#2 -168509#1 -167646#3 --167553#4 -167882#1 --165224#4 -166442#1 --166612#5 -166796#3 -168680#0 -165818#2 --169361#1 -165392#23 -169183#1 --168765#0 --167008 -166138 --168543#0 -166908 -167541#1 -168887#1 --165730#0 -165513#2 --167137 --168850#1 --168059#1 -167539#0 --166099#0 -168471#3 --168544 -168916#6 --168928#1 --165960#0 -168856#5 -168471#12 --165982#3 -168445#0 --165777#1 -168027#0 -167276#5 --169142#0 -168045#5 --168706#6 --169544#0 -166461 --166777#4 --166908 -166484#2 --166513 --165701#0 --168380#1 -167981#1 -169392#2 -166936#0 -166386#1 -168778 -166409#1 --166820#0 -165785 -167276#2 -168027#2 --165933#2 --168108#3 -168813#4 --166465 --166322#2 -169233#1 --167807#4 --168940 -165761#1 -167892 --169533#3 --165710 --168113 -165392#0 -168543#3 -166193#0 -168765#1 --166510#1 -168394#1 --166859#1 --168124 -166698#2 -168762#1 -166107#0 --167722#1 --167096#2 --168543#1 -166985#5 --168023#2 --165232 -166779#0 -168524#1 --168285#1 -166409#0 -168552#4 --166956#3 -168223 -165761#4 -165258#3 -167277 -168929#1 -169535#1 --167604#0 -165455 --165224#2 --167114#0 --169498#2 -168509#2 --166404#6 --167553#0 --165216#2 --168022 -168887#7 --167553#3 --168048 --167790#1 --167188#3 --166985#1 --168738#0 -167523#1 -169441#1 --169137#1 -166668#0 -167464#1 --169392#0 -169528#3 --168080 -168585 -167697#1 -165568#1 --165239 --165982#0 -166708 --165451#0 --169003 --165291 --168585 --167942#0 -168594#0 -165933#0 --167088#1 --169168 -167399 --166400 -165851#14 --168109#2 --166975#0 --167097#2 -166555 -166329 -166949#2 --168020#2 --165269 --166462#3 -165825#0 -168582#1 --167917 --166178#1 -167767#11 --165450#2 --168818#5 -165589#6 -168045#1 --169560#0 -167774#3 -167782#1 --165683#1 -168827#0 -169142#1 -167528#16 --168027#2 -165404#8 --167807#7 -167459#0 --165553#1 --166398#0 -167442 -167510#0 --168020#3 -167115 --168612 -165695#0 -167805#1 -169535#0 -167291#1 -169544#2 -167900#2 -168271 -165489#3 -166651 -167881#4 --165982#1 -166010#0 -166423 -165568#4 -167924#4 --166010#3 --167248 -166208#6 -167796 -166302 -168951#22 --167881#1 --168559#0 --167075#2 -165789#2 -168159 -165761#0 -169200 --168582#1 --167096#1 -168230#2 --165586 -165937#2 -166922#4 -166835 --169230#0 --167780#1 --169137#6 -165736 -166251#2 -165677 -165589#2 --166612#3 --165687 --167094#4 --168005#1 -166794#0 -167075#1 -167553#0 --166657 -169498#2 -165367#1 -168460#3 -167050 --169099#2 -166859#1 -165356#0 -166386#0 -168662#0 -168543#2 -165392#19 --168852#0 -169133#2 -168609#4 -168397#5 -166204 --168949#3 --168928#2 -168818#6 --167807#2 -166121#0 -165489#4 -169286 -168857 --167903 -167346#1 -169256 -165458 --166398#1 --167258 -168745 -169328 -168533 --166302 --169392#2 -167924#1 --168475#0 -167944#1 -168552#1 -169099#1 --168076 -167138 --167524#1 -166818#3 -165730#1 -169513#1 --167434 --165224#3 --167981#0 --168471#9 -166070#1 -165559#2 -167103 -166956#1 --166208#6 -168852#0 -165392#6 -166818#0 -168870#1 -169528#2 -165266 -168952 --168949#4 -167602 -166510#1 --168182 --168915 -166442#2 -167239 --166583#0 --167885#1 --168160 -169137#6 -165224#1 -167782#0 --166107#2 --167852#2 --169386 --168198#0 -168743#1 --165552 --168552#1 -169391#3 -169503 -165568#0 --169587 -166887 --168300#0 --167199#1 -165818#3 -166770#0 -167627 -168937#1 -165845#2 -166107#1 -167291#0 --166859#2 --168116 -168160 -168559#9 --169195#0 -169544#0 --168706#0 -165568#2 --165549#0 -168278#2 --168867#0 --165807#1 -167212 --169503 --167050 -166169#3 -166612#0 --167715 -169391#0 --166698#1 -169106 -168841 -168471#8 --166859#0 -167907#0 --168380#3 --166968#0 --167464#0 --168827#0 -167434 --165364 -166509#0 --169083#3 --167408#0 -167475 -168460#4 --166331#1 --166331#0 -169093#0 --166362 -167190#0 -166312 --167630#3 --167001 --166555 --169324 -167345#1 --169553#2 --165216#0 --165450#1 -166818#2 -168903#1 -169566#8 --166424#1 -168706#0 --166968#2 -165592 --167679#0 -165898#1 -166949#0 -167368#1 --169566#4 -167803 --167758#0 -167213#4 -167075#2 --169305 --165619 -166565#6 -167094#2 --168765#1 -167510#3 --166193#3 -168622 -169465#0 -165239 -168818#3 -167767#10 --169392#3 -165826#1 --165477 --167172 --166599#0 --168706#3 -168887#8 -166193#3 --168367 --167696 --167569#2 -166398#1 --169115#2 --166322#1 -166103#1 -165640 -167955 -167983#2 -166783 --166015#2 --166881 -169243 -165559#1 --169535#2 --165380 --167960 --167141 -168856#6 --166070#1 -168530 -167507 -168182 -166465 -165897 --169099#0 -168908#3 -166314#1 -165404#5 -167541#2 -165830#0 --167212 --167631#0 --166626 --168109#1 -168396 -166524 --169046 --165303#1 -169165#1 --168593#1 -166404#5 --166612#7 -167881#1 -169375 -165698 -167188#7 -167631#0 -165776 -167885#0 --167774#1 -166404#1 -165719#1 --167159#0 --166070#2 --165413#3 -168445#1 -167880 -167097#6 -169069 --168438 -167199#1 -167569#0 --166819#0 -165728#4 -166768#2 -167599#1 -168045#6 -169410 -169498#1 --168420 -169566#7 -169544#1 -168272 --167899#1 --168020#1 --169449#1 --168503#3 -167775#1 --167678 -167075#0 -169543#1 --165579#1 -165392#25 -168104 --165651 --165776 --167300#0 --165450#4 --166015#1 --165982#4 -168098 -165559#0 -167135#3 -165404#6 -169566#2 -169566#3 --166985#0 -166705 -165616 --167307#1 -165755#0 -166820#3 --165933#3 -165982#0 -168380#3 --168855 -168241#0 -166534 -166091 --166204 --169489#1 -166442#5 -167760 -168314#0 -166433 --167464#1 -167774#1 --168031#0 -166916 --168347 -166256 -165986#2 --165731 --166768#1 -167881#5 -166768#0 --165808 -166006 -168402 --166327#1 -167882#0 -168994#0 --167881#0 -168587#0 -167150#3 -166658 --169482 -169392#1 -167835 -167470 --167097#5 --168278#1 --168559#4 --169544#3 -166015#2 -166464#2 -169499 --168020#0 --167881#7 --165413#1 --168135 -169324 -169046 --166256 -168266#1 --169137#3 -167096#2 --167216#1 --167277 -166881 -168594#2 --169535#3 -168467#1 -165891#1 -169252 --167442 -168856#3 -165567#0 -165695#2 -166404#2 --167644#0 -167881#7 -166968#2 --166984 -168834 --168277#1 -167780#1 -166516#0 -166819#0 -168277#2 -166404#3 -167524#2 --168082 --165227#1 --167654 -166169#1 -167046#0 -168994#1 -168951#19 -165413#11 -165808 -168471#9 -165807#1 --165618#1 -166819#2 -168706#6 -168472#1 -168594#1 -168706#5 -169183#0 -165982#4 -166352#0 --168903#1 --165493#0 -168856#4 -167881#0 --169328 -167188#3 -169165#2 --165204 -166547 -169196 --167219#0 -169179#4 --169005#0 --169286 --166658 --167541#0 -165450#0 -167248 --169528#7 --166926 -167088#1 -166982#0 --168818#7 -167553#1 -167209#0 -169489#1 -165864 --167807#1 --168229#0 --169535#4 --166424#0 --169333#0 --169165#3 --169115#3 -165837 -167981#2 -165589#1 -168916#1 -165392#15 -169460 -166279#1 -167679#1 -165489#6 --168421 --167881#4 -165489#2 -167301#3 -165413#2 -168916#8 -168852#2 -169361#1 --168497 -166262 -166026 --167096#0 --168640 -165825#2 --168990#0 -167326 -168543#4 -166948#0 -167518 --167175#1 --167150#2 -167088#0 -168883#3 -165704#1 -166352#2 -168471#10 -168108#4 -166612#3 -166794#3 --167333 -165429 -165894#1 --167219#1 -169441#0 -166612#12 -168222#0 -165761#2 -167767#0 --166768#0 -166182#1 --165869 --166949#5 -167924#3 --166559 -168863#0 --166974 --167620#1 -169029#1 --167835 -166698#0 --167096#4 --165755#0 -167546#5 --166808#2 -165392#20 --168241#0 -168887#3 -167540#0 -167333 -168453 --168241#1 --168732 -166030 --168471#12 -167246#1 -167640#1 -167546#3 -168883#1 -169032#1 --169533#2 --166819#2 -166820#2 -165986#0 -165891#5 -166251#3 --169515 --165898#1 -167767#3 --166319#0 -165623#0 -167807#4 --169333#1 --168271 -168743#2 -165361#2 --168788 --167807#3 --166034 --167300#1 --168533 --166778 --168151 -165216#2 --166561 -165851#9 -168916#2 --166668#0 -168559#5 -165404#1 -168509#4 -167780#2 -166208#4 -166208#8 --166076#0 -165937#0 -167762 -165765#2 --165265#0 -166478 -166106#0 --165203 --166835 -165851#12 -169498#0 -167134#0 -165845#0 -165701#0 --167782#1 -166777#2 --168795 -165552 --168818#3 --168666 -167664 -168916#4 -167300#1 -166041 -168176#0 -167767#9 --166398#4 -165894#2 --165542#1 --169528#3 -165559#3 -165898#0 -167807#8 --166088#1 -167483 -167113 -166484#3 --168953 -167250#2 -166352#1 -166558 --166731#0 --166794#3 --166496 -166398#0 -168059#0 --166282#1 -167159#0 --165379 -167008 --165831 -168838#1 -165414#1 -169329#13 -167097#4 -166612#10 -169032#3 -169560#1 --167389 -165960#1 --167933 --167239 -167209#2 -166538#1 -168363#1 -165730#0 --168299#1 -165796#1 -166565#4 -165433 -168429 -165216#3 -165280 -165903 -166566 --169243 -169141#0 -168813#2 -166386#2 --168622 --169566#6 -167444#0 --168552#4 -169068 -165710 -166032#2 --165507 -166731#1 --166010#0 --167640#1 --169585#0 --169544#1 -165346 -167089#0 --166208#1 --167096#6 -167528#19 --166208#4 -167250#1 -167216#0 -165651 -168333#2 -168955#1 -169182 -165392#3 --168893 --165216#3 --168662#1 --165271#0 -167767#13 --167138 --165736 --167773 -166208#2 -169333#1 -167199#0 -165370#0 -168883#4 --165951 -168655 -165619 -165891#0 -166034 --165216#1 -167096#3 -168937#2 --165224#1 -166040#2 -169566#4 -169379 --166171#0 -168662#1 -166859#3 -165404#2 -165227#0 --165623#1 -167715 -166865 -165451#0 --167524#3 -165549#0 -165258#2 -165228#4 --165362#0 -166400 -168990#0 --165266 --165848 -168222#1 --167807#5 -166931 -168954#1 -166331#1 -167242 -168030 --165891#0 -166010#2 -167176#0 -167276#4 -165387#1 -167505#1 --166818#2 -168023#2 -168333#0 -168411 -169535#2 --169264#1 -168115 --168929#1 --168081#0 -166682 -168471#6 --166484#0 -165513#4 --166495 -167541#3 -168696#0 -167790#1 --169137#4 -166442#3 --167806 -165851#2 --166845 -168723#1 -167030 -167778 --169490 -166949#4 -167834#0 --165623#0 -165973#2 -165733#1 -165370#1 -168503#3 --168108#4 --169524 -165931 -168951#21 -169032#0 -166736#0 -168176#7 --166208#0 -167230#0 --168081#1 --165761#2 --166698#0 --167505#0 --168277#3 --166478 -165542#1 -169449#3 -165477 --167852#0 --165761#0 -169465#1 --166612#8 -166583#0 -168380#2 --165559#3 --167075#3 --168263 -165293#0 -167276#3 -166769#0 --167942#1 -166178#0 -167924#2 -167175#0 --165818#1 --166985#3 -168300#0 -169479#1 -167301#1 --169240 -165204 --165356#1 -165392#17 -168559#2 -165998#1 -167350#2 --167807#6 -165566#0 -166845 -168380#1 --166074#1 -168198#1 --166708 --169449#0 -167096#4 --169233#0 -165227#2 --168903#0 -167276#1 -168887#4 -166777#1 -166632 -168813#0 -165392#26 --166121#1 -169029#0 -169482 -165973#0 -165739#0 -168990#1 --165898#0 --167135#2 --167301#4 --169361#0 --167881#6 --167540#1 -165265#2 -169099#0 --169465#1 -166985#1 -168124 -169571 --168202 -166552 --166808#1 -168176#5 --165356#0 -168552#0 -168176#9 -166795 --167780#2 -168045#3 --166193#0 -165259 -167903 --168559#2 -168503#0 -168420 -169479#2 -168593#1 -167071#1 -166778 -167553#4 -165379 --167520 -168108#3 --167273#1 -168250#2 -168706#2 -169528#1 -166354#0 --165982#2 --166107#1 -167722#1 --166462#2 -169336 --168524#0 -168133 --165698 -167900#0 --167620#0 -165534#0 -165789#0 -168524#0 -167546#4 --168954#0 --169566#5 -165392#16 --167878 -166888 -165514 -166859#2 -167310 --167251 -165765#0 -166398#3 -167188#5 --167630#0 --168471#11 -167885#1 --168949#0 --169566#1 -168005#0 -165511 -166193#1 -166985#3 -166922#6 -168870#0 --165818#0 --165387#1 --166534 --169256 -169183#2 --165818#2 --167097#1 --166482 -168609#0 -168359#1 -167301#2 -166509#2 --167758#3 --166510#2 -168818#4 -165293#1 -165392#2 -168397#2 --166936#1 --165933#1 --167541#2 -165851#5 -166074#0 -168363#2 -169553#1 -167082 -167199#2 -165450#2 --167301#3 --169528#5 --169528#6 -167216#2 --167149 -168109#0 -169074 --167644#2 -168397#0 --166015#0 -165574 --168278#0 -167852#2 --167679#1 --169441#0 -166701#0 -167698#2 -165851#7 --166887 --166509#2 -168109#1 -165618#0 -167137 --165367#1 -165392#13 --166107#4 -166657 -165728#1 -167767#12 -167846 --169560#1 -166510#0 -168951#25 --167541#1 --166010#1 -168758 -169083#2 --167089#1 -165670#0 -166612#8 -167844 -168502#2 --166262 -166008 -167881#6 --168838#0 -167096#6 -168559#10 --165529 -167620#2 --169465#0 --166985#5 -165493#0 --169083#1 -165271#0 --169392#1 -165534#1 --165370#1 -165413#10 -169463#3 -168916#3 -168908#1 --168117 --167718 --166354#1 -167511#1 -168955#0 --167599#0 -167976 -167807#5 --169535#1 --166070#0 -167654 --165568#2 --166464#1 --165568#0 --168115 -167773 --167483 -169528#7 -166051 -166612#5 -166768#1 --167842 --167199#0 --168467#1 --166421 --165265#2 --165579#2 -166750#1 -165329 -166070#2 --167697#1 -165324 -165404#0 --168290 -168081#3 -168266#0 -168867#1 -167412 -168887#2 -165938 -168788 --166462#1 --167778 -165361#1 -166540 -168696#1 --166948#0 -168505 -167216#1 --169335 -168126 --168333#0 --166074#0 -165891#4 -165826#0 -168883#0 --166777#1 -165265#0 -165645 -166200#2 -169032#4 --166404#4 -167806 --168360 -169449#0 --168691 -167569#1 --166612#1 -166956#3 -167096#1 --165894#0 -166322#1 -165232 --167981#1 -169566#5 -166404#6 --169566#3 --168467#0 -166612#1 -169233#0 --166794#0 -165404#7 --166819#4 --165271#1 --168559#7 --165567#3 -166395 -165757 --166404#5 -166297 -168394#0 --166282#0 -168360 -168502#1 --166354#0 -166416#0 --168696#1 --166948#3 --169566#7 -165670#1 -167777 -166688#0 -167775#4 --166334 -165364 --165937#1 -168916#9 --168584 --167722#0 --168680#0 -168559#0 --166208#5 -167489#1 --168954#1 -168954#0 -169566#0 -168951#24 -168697 -167097#2 -168229#1 -166510#2 -167942#0 -168800#1 -168278#0 --166558 -167068 -168460#1 --167790#0 --168762#0 -168229#0 -168198#0 --165559#0 -167511#0 --165265#1 -169077 --169544#2 --165414#0 -165589#5 --167507 --169264#0 --168649 -168412#5 -166314#0 --167089#0 -167528#17 -167718 -169115#3 -167472 -167396#0 -165998#0 -166779#1 -165228#1 -165986#3 -165228#0 -167250#4 -169585#1 -165207 --167620#2 -165392#22 -166208#0 -168677 -168278#1 --165413#2 -167852#0 -169544#3 -166565#5 -165228#3 --167630#4 -167553#2 --166509#0 --168229#1 --167094#2 -169391#2 --167881#2 -167299 --168503#0 -169373#0 --168030 -167852#4 -168950 --168108#2 -168262 -166416#2 --168461 --168981#1 --168285#0 -166823 --167907#2 -166386#3 -167349 -167807#3 -168277#0 --166026 -169566#6 -165362#2 -167396#1 --166843 -168438 -166169#2 -166482 --169566#2 --166768#2 --167266 --167510#0 --168435#0 -167546#1 --165883 --167216#2 --165937#2 --167510#1 -167981#0 --168007#2 --168266#0 -166777#0 --169498#0 -165380 --167522 -168680#2 -166698#1 -168818#5 -165392#18 -165851#11 -168127#1 --166651 --169544#4 -166010#1 -169003 -169274 -168489#1 --167150#1 --167852#1 -165414#0 -168299#1 --168653 -168088#0 -168263 -167301#4 --166208#7 --167759 -166221#2 -168174 -166467 --166404#3 -165303#1 -169533#3 -167250#0 --167553#1 -168908#2 -168951#23 --165414#1 --167388 -167097#0 --168109#0 -167644#1 --168818#6 -165891#2 -166088#0 -167213#3 --165413#5 --168007#0 -166859#5 -169465#2 -166107#2 -168310 -168981#1 --165568#4 -165413#7 -167301#0 -168981#0 -168121 -168241#4 -168020#1 -166010#3 --167880 --165592 -168277#3 --166948#2 -165869 --167307#2 -165960#0 -166462#1 -166610 -166171#0 -167644#0 -167807#2 -165360 -166251#1 -166794#1 --165354 -165478 -165982#2 --165599 --167599#1 --167569#0 -167758#3 -169528#5 -165413#3 -166590 -167960 --166975#2 --169460 -165818#1 -165845#1 -168278#3 -167528#18 -168852#1 -166926 -167266 -165451#1 --169147#1 --168645#0 -168928#0 --165891#2 -167646#4 --166888 -167134#1 -167141 -165271#1 -168509#0 --167025 -166088#1 --168285#2 --166516#1 --166985#4 -165825#1 -166777#4 --165670#1 -167767#8 --168680#3 --168453 -165507 -167546#2 --168396 -166208#7 -166808#2 --168677 -165224#0 --168559#6 -167150#2 -165890 --168981#0 -168116 -165513#3 --168310 --167301#0 --169373#0 -165529 --168949#1 --165938 -169093#2 -168270 -168559#6 -168783 -165532 -167604#1 -165224#3 --167178 --168278#2 -165843#2 -165851#8 -169177 -169524 --167097#6 -167134#2 -167936 --167644#1 -168081#2 --167455 --165891#1 --165640 -165413#0 -167131 -167444#2 -168031#0 --168159 -169513#0 --167630#2 -166334 --166404#7 -165579#2 -167983#1 -165392#1 --168706#2 -168706#3 -165733#0 -166626 -166462#3 --165370#0 --169147#0 --169585#1 -168380#0 -168819#0 --168471#8 -168543#0 --168743#2 -168850#1 -168247 -169533#2 -169489#0 --165450#3 -169533#1 -167009#1 -167594#1 --167150#3 --168552#2 -165765#1 -168400#2 -169587 -168151 -165404#3 -168045#4 --165891#4 --166936#0 --168524#2 --166783 --168838#1 -167188#0 --168387 --169069 -166561 -166169#5 --166777#0 --168680#2 --167983#2 -167644#2 --168543#3 --167780#0 --165227#2 -166070#0 --168380#2 -167001 -166279#0 --168483 -169137#3 -165982#3 --168952 -168022 -165618#1 --168834 -166240 --167983#1 -165392#27 -166211#4 -168278#4 -168176#4 --166297 --166106#0 -166137 -168916#7 --168813#4 -168326 -166282#1 -166956#0 -165568#3 --166820#2 -168543#1 -168483 -167620#1 --168027#0 --167094#0 -168856#7 -169240 -168813#1 -168403#0 -166538#0 -166808#1 -168855 --168990#1 --167941 -166739 --167273#2 --165670#0 --167301#1 --166612#10 --168471#6 -168612 -166769#1 -168088#1 --169274 --167852#4 -167313 --168471#10 --165498 --166794#1 --168471#4 -166948#1 -168916#5 -169566#9 --169499 -168887#6 -165821 -166208#5 -166169#4 --167412 -168867#0 -168464#2 -165719#0 -168940 -166496 --167163 -165553#0 --165845#0 -166635#1 --169528#0 -169535#4 --167885#0 -166646 -168109#2 --167918 -168559#7 -165392#5 -168509#3 --168762#1 -167524#1 -166819#1 -167219#1 -167900#1 -165982#5 --167594#1 --166442#3 --169099#1 -169376#0 -166796#1 -166949#1 -168241#1 -168738#0 -168421 -169490 -169515 -169147#1 --165433 --166900 -165303#0 -167274#0 -167827#1 -167135#2 --167489#1 -166208#1 -166200#1 -166221#1 -167178 -167541#0 -165680#2 --169513#1 -168893 --166818#0 --168530 --165933#0 -165623#1 --167936 --168503#2 --168611 --166982#1 --167774#3 -168108#2 -168645#0 -167414 -165811 --167553#2 --168908#4 --168695 -166182#0 -168680#3 --168559#10 -166922#3 --168104 -168593#0 --167150#0 --167188#7 -168313 -169543#0 -165894#0 --168850#0 --169074 --166200#2 -168765#0 -167630#1 -168080 -167097#1 -166322#2 --166489 -167646#1 -167149 --166409#0 -169195#0 --168783 --165227#0 -168706#4 -165701#1 --166032#1 -165489#0 --168929#0 --167472 -166559 -167798 -165556 --165324 -168818#0 -169005#1 --166121#0 -167320#0 --166818#1 --168402 --168524#1 -165851#6 --168552#0 --167310 --169029#1 --165413#10 -168863#1 -169230#0 -166516#1 --165895 --167899#0 -167522 -169264#1 --168127#1 -168762#0 --166779#1 -168020#3 -166331#0 -169566#1 -166818#1 -167697#0 --167540#0 -166489 -168048 -168624 -168573 -166985#0 --168706#4 -168887#0 --168778 -167553#3 -168850#2 -168363#0 -167209#1 --168380#0 -166859#4 --166949#1 --168743#1 --165429 --169528#1 -167878 --166416#1 --168908#0 -167097#5 --166566 --167230#1 --167292#0 -167630#4 -165933#1 -165586 -169300 -167983#0 --169083#0 --166610 -167947 -165728#3 --167523#1 -166103#0 --166949#0 -168113 -166956#4 -165830#2 -166495 -167176#1 --167246#1 --168098 -168023#3 --167313 -169392#3 --166702 --169498#1 -167388 -166922#5 --169535#0 -168059#1 -166484#1 -169093#1 -165228#2 -165883 -167459#4 --167782#0 -165392#14 -169376#1 -168176#2 --169137#2 --167540#2 -167163 --166288 --166484#2 --167758#1 -168277#1 --168127#0 -167251 -165979 -168475#0 --169137#0 --165487 -167190#1 --165891#5 --165247#1 -165498 --167274#0 --167249#1 -168559#4 -167075#3 -166319#0 --168827#1 --168908#1 -165607 --166618 -165413#5 -168795 -167489#0 -166442#4 -166922#0 --166931 --166949#2 -168640 --165701#1 -167780#0 --165532 -167980 -167396#2 -167528#20 -166900 -167320#1 --165559#1 -165851#10 --168852#2 --165329 --169373#1 -166279#2 -166032#1 --167030 -168471#11 -167444#1 --168314#0 -166227#0 -165604 -167464#0 -167907#2 -167646#2 --168222#1 -168503#2 --168333#2 --168511 --167286 --167097#3 -165820 --165645 --169007 -169391#1 -168949#1 --165979 -167258 -166702 -166612#9 --169465#2 --169533#1 -168285#2 -167528#15 -169449#1 -168928#2 --169029#0 -169084 --169165#2 -165338 -167408#0 -168883#2 -168818#7 --167640#0 --166467 --168818#4 --166859#3 --169449#3 -167775#0 -169141#1 -166513 -169137#1 --168745 -167775#3 --165937#0 -165387#0 -166121#1 -165392#7 --165719#1 --165960#1 -167346#0 -165413#1 -168609#3 --169177 --168198#1 --167594#0 --168313 -169528#6 --168489#0 -169364 -167213#2 -166731#0 -167524#3 --168955#1 --165761#1 --167805#1 -169305 -169137#2 -167863 --165280 -167918 -168511 -167540#1 -166177 --168411 -165413#8 --168559#9 --168133 -167230#1 -168076 --165542#0 -168202 -166107#4 -168721 --165387#0 --165413#6 -166936#1 -165450#4 -167967 --167046#1 --168706#5 -167917 -167510#1 --165864 -169588 -166462#2 -168695 -166424#1 --166982#0 --165719#0 --166484#1 -167071#0 -165579#1 --166552 -167094#0 --168247 --168277#0 -168081#1 -165567#3 -169083#1 -165224#4 -166949#5 -167276#0 -167767#6 --167088#0 --165998#1 --165933#5 --166319#1 --166433 -166074#1 --167334 -167882#2 --165739#1 -167881#8 -165579#0 -167758#0 --169441#1 -168732 -168117 -168915 -169322 --168743#0 --168819#0 -167696 --169077 --166705 -168609#1 --166599#1 -165392#4 --167199#2 --165897 -165489#1 --166208#2 --168697 --166739 --166322#0 -167094#4 --165998#0 -167459#1 --166956#4 --168857 --167097#0 -165796#0 -167114#0 -167524#0 --165458 --167881#3 --166404#1 -165291 --169083#2 --168081#2 -167604#0 --166208#10 --168852#1 -165818#0 --166524 --167103 -168081#0 -166982#1 -169391#4 -169386 -165362#0 --168841 --169165#1 -169147#0 -168045#0 --169566#9 -165851#1 -168045#2 -165356#1 --165807#0 -168016 -167089#1 -167686 --166649 -165728#2 -166486 -167899#1 -167941 -168937#0 -166464#1 -168007#0 --165451#1 --169233#1 --168543#4 -167767#1 -168653 --168121 --167569#1 -167455 --165933#4 --168222#0 --168908#3 --165338 -165933#5 -168939 -166612#7 --167230#0 --166916 -165680#0 -166565#3 -167150#1 --166416#0 -165789#1 --167881#8 -166178#1 -165731 -166404#7 --168593#0 -166985#4 --168559#5 --166416#2 -167094#3 --168108#1 -168005#1 --165837 --168005#0 -166599#0 -166859#0 -169553#0 --168738#1 --168023#1 --166612#14 -167569#2 -165413#9 -169535#3 -165535#4 --167505#1 --168390 -166599#1 -168071 -165807#0 -166975#2 --166208#8 -167546#0 -167758#2 -168584 --167644#3 -166211#5 -166193#2 -165216#1 -167046#1 -167528#14 -167345#3 -169000 --166510#0 --168412#5 -169392#0 --166612#9 -168020#0 -165842 -169528#0 --168108#0 --165413#11 -166750#0 -168903#0 --166827 -168135 --169528#2 -165513#1 -168567 -168951#20 -166421 --168266#1 --167524#0 -165203 -167150#0 -165404#9 --167944#1 -167630#3 -166398#4 --166099#1 --168928#0 --165579#0 --165845#1 --169553#1 -167097#3 --166538#1 -167368#0 --167075#1 -167213#0 -169535#5 -166416#1 --166859#5 -167767#2 --166327#0 -166211#3 --166734 --165821 -167807#6 --166612#0 --165367#0 -167176#2 -166974 -167286 -165450#1 -165599 -165933#3 --167518 --165777#0 -168176#3 -168497 --166956#1 -168176#1 -167599#0 --168471#3 --167834#0 --165450#0 -167307#2 --165982#5 -165830#1 --165224#0 -167834#1 -167842 --167892 --168958 --165796#1 --169364 --166779#0 -169032#2 --169336 -168241#2 -166649 -166282#0 --166088#0 -166015#1 -168435#0 -167249#1 --165739#0 -167459#3 --168031#1 -169544#4 -166128 -169133#1 -169585#0 -167620#0 -166354#1 -168992#2 --169005#1 --166956#0 -167644#3 -167679#0 --166948#1 -166211#0 -166484#0 --165413#8 --165796#0 -168503#1 --166698#2 -168666 --167541#3 --165303#0 --169196 --168818#0 -167540#2 --168813#0 -169139 -169560#0 --168818#1 --168081#3 --166590 -168818#1 -165687 -166327#0 -168850#0 -165933#4 -167630#0 --165568#1 --167429 -166668#1 -165553#1 -168928#1 -168108#1 --167834#1 --166540 --166777#2 --165804 --169566#8 --167350#2 -168290 -168461 --167216#0 -168908#4 -167759 -166322#0 -168367 -167881#2 -165542#0 -167807#1 --166859#4 -167354#1 -165739#1 --165761#4 --167983#0 -168838#0 -167096#0 --165618#0 -165293#2 -168611 --168860 --166177 -165825#3 -166635#2 -169083#3 --167630#1 --169535#5 -166023 --166820#3 -168020#2 -165361#0 -166319#1 --165568#3 -168007#2 --167096#3 -165851#3 -168108#0 -166099#1 -165489#5 --167301#2 -167389 -167807#0 -166208#10 -166948#3 -167852#1 -165895 --168503#1 --166464#2 -165777#0 --166731#1 -165413#6 -167345#2 -167899#0 -166288 -168953 -168311#0 -166424#0 --169513#0 -168489#0 --167097#4 -168908#0 -167722#0 -166015#0 --166032#2 -168363#3 --167135#3 --165811 --165820 -169007 --165730#1 -168390 --166030 --166193#2 --168813#1 -168738#1 --165755#1 --167414 -165804 -168023#1 -168502#0 --165413#7 --166138 -168887#5 -168579 -167025 --165894#1 -168176#6 --166041 --166819#1 -169306 -165216#0 --166010#2 -165671#0 -169335 -166736#1 -166101 -167292#0 -166975#0 -167881#3 --165894#2 --166200#1 -168827#1 -167775#2 -169179#3 -166362 -169333#0 -165269 --165845#2 -166221#3 -166819#4 --168278#4 -168285#1 --165514 -168311#2 -169179#1 --167760 -165755#1 -168127#0 -168958 -169099#2 --166538#0 --166442#1 -168691 -168949#3 -166734 --166404#2 --168012 --169553#0 -166393#0 --166398#3 --167242 --169062 -165629 -169083#0 --166442#4 -166820#0 --167075#0 --169000 -169315#0 --167844 -168949#4 --168505 -165695#1 --167947 -166211#2 --165931 --167697#0 -166565#2 --167470 --165559#2 -167273#1 --168908#2 -165671#1 -168285#0 -166948#2 -166612#14 -168860 -167307#1 --166395 -169137#4 --167807#0 -169115#2 --169115#1 --167046#0 --167796 -167520 -166618 --166516#0 --169200 -165265#1 --165511 --165818#3 --168850#2 --166128 -165851#4 --167399 -168347 -167933 -167429 --166101 -168524#2 -166036 -168587#1 --167175#0 --166949#4 -168929#0 --168273 --168241#2 -166984 -168387 --165890 --166178#0 --169489#0 -165354 --168126 -165367#0 -165683#1 --168955#0 --167510#3 -168273 -168460#2 -165450#3 --166312 -167767#4 --167131 -166952 -169373#1 -166211#1 -165848 -166379 --166107#0 --166442#5 --167774#0 -168171#0 -166099#0 -165973#1 -167300#0 --166484#3 -167175#1 -167505#0 --167524#2 -168723#0 -165567#1 -165728#0 -167698#1 -166169#0 --168023#3 --167981#2 --166668#1 -165933#2 -166701#1 -166827 -166393#1 -165982#1 --168863#1 --168278#3 --168662#0 --165567#0 -168397#1 -167630#2 --166818#3 -168230#3 --165413#9 -166404#4 --167686 --168573 -166227#1 -167790#0 -168031#1 -167219#0 -166327#1 -167640#0 --168277#2 -168552#2 -168856#8 -165680#1 -169368#1 -165489#7"/>
    <!-- id="-1897" name="Hay Hassani nord" -->