<?xml version="1.0" encoding="UTF-8"?>

<!-- generated on 2025-08-28 01:41:05.795348 by scenarioFromOSM.py UNKNOWN
  options: <doubleminus>osm H2ST9_cp.osm <doubleminus>out ep5 <doubleminus>population 250 <doubleminus>local-defaults <doubleminus>processes 4
-->

<tazs xmlns:xsi="http://www.w3.org/2001/XMLSchema-instance" xsi:noNamespaceSchemaLocation="http://sumo.dlr.de/xsd/taz_file.xsd">
    <!-- id="-2030" name="Oulfa" -->
    <taz id="-2030" edges="-180272 --178410#1 --180832#3 -181670 --180230#1 -179083#4 -181111#7 -181554 -180992 --178641#4 --179400#2 --179802#0 -181157 -178970#2 --181377#3 -178967#1 --181300#2 -177985#1 -180586#7 -181386#0 --179778#4 -180961#2 --177727#3 --181061 -180665#0 -178137#0 --181554 --180610#0 -180842#1 -179471 --177916#5 --179631#2 --180023#1 -181414#4 --180160#1 --180578 -180390#0 -179185#2 -179243 -177438#1 -178933#4 -181490 --178641#1 -177308#2 -177727#0 --177925#8 -178570#1 --179143#1 --181330 --177979#1 --178296#2 -180586#0 -178535#1 -179343#0 --177957#4 --180298#3 --177912#3 -178982 -181085 -177727#1 -177499#1 --177343#0 -179485 --179818#1 -181302#0 -178571 --178237#3 -177761#0 -179307#0 --179582 --177783 -177926#3 -177554 -178579 --177926#0 -179631#3 --177957#6 -179752#1 -177662 -180157 -180244 -178933#2 -181412#2 -177988 -178394#1 --178491 -177989#0 --179290 --181034#2 --178585#0 -181061 --178408#5 -181366#4 -178093#0 --178539#4 --177918 --180390#5 --179134#0 -179547#0 --177631 -179466#3 -178831#0 --179400#4 --178237#6 -181159#1 -178849#4 -181264#4 --181253#1 --179920 --181170#0 -180440 -181659#2 -179839#2 -178585#0 -180353 --179117 -181264#5 -177624#5 --177912#6 -178751#4 --181669#14 --177733#1 -179738#3 --179046#0 --180121#1 --179086#1 --177308#2 -179347 -180110#0 --177972 -179343#2 -180373 -179778#0 -180939#2 --177539 --180988#1 -179587#0 -179843 -179858 -177916#3 -179655 --179587#1 --180373 --177912#4 --179373#0 -179691#3 --181111#3 -179377#0 --180504#1 -178697 -179062#2 -179395#2 -180801#0 --179287#0 -179778#5 -177926#4 --180647 -180357 --179879 --181076#3 -177515#1 -178244#0 -180264#2 -181629 --177488#0 -179744#3 --177793#0 --180759 --179778#2 -179851#0 -178644 -180669#1 -180100#1 -179191#2 -179464#1 --179185#0 -179472 -180153 -180238#1 --178303 -178935 -179711 --178850#2 -177383#2 -178898#6 -179907#0 -181042#5 -178607#1 --180552#1 --179575#2 -180221#3 --177343#1 -177318#0 --179400#3 -178428#1 -179926 -178517#1 -179168#1 -179552#0 -181028#0 --178367#2 -177523#1 -178237#11 --178150#0 -179895#0 --180106 -180221#2 --180910 -177738 -181081 --180644#0 --180973 -179363#0 -177541 -178686#11 -179786 -177736 -178898#1 --179092 -181236#2 --180665#2 -179851#1 -181669#10 -177925#0 -178686#2 --181669#12 -180385#0 -178846#1 -179748 -180559 -177639#4 -180158#1 -177624#3 --179839#2 -180928#1 --179400#0 -179839#1 --178244#0 --179587#0 --179373#2 --180928#1 --181227#2 -179360#0 -181485 --178311#2 -178237#12 -180120#1 -178607#3 -178136#2 --181380#0 -179466#8 --177925#5 -177916#5 -181209#3 -178269#1 -177387#1 -177468#0 -181520#1 --177925#0 -179919 -181177 -177370 --179907#1 -180121#1 --180072#1 -181108 -179275#2 -180796#2 --179744#5 -178539#0 -179466#9 -180789 --179222#3 -180586#24 -180106 --177407 -178526#7 --181142#2 -179986 -181681#1 -177957#10 --180945#3 --180150#1 --179907#2 -179967#2 --178456#1 --179221#1 -177926#0 --181420#0 -178410#1 -178449 -180586#18 -180964#1 -180056 -180390#1 -179463#1 -178456#3 --179222#4 --181373 --178593#1 -181386#1 --179703#0 --178643 --181414#0 --178735 --179394#0 -180602#2 -178818#0 --179143#0 -177484#0 -181377#2 -178311#5 -177404#2 -179287#0 -178408#7 -180280#4 -178408#0 -179638#1 --180841 -179788#1 --179895#1 -178950 -177950#1 -180913#0 --177370 -178531#1 -177636#0 -179118#2 -180584#0 --178618#1 -179466#11 -180285#2 -178243 -180987#1 --177807 --181359#0 --178109#1 --179275#0 -177553 -180950 -179691#2 -181236#1 -180692#0 --177891#0 -180331#0 -181163#0 -178060#0 -179997 -179341 -179360#2 --177438#0 --180659#2 --177662 -178136#0 -179892 -180339 -181307#5 --178189 -177884#1 -177827#0 -180987#0 -178850#1 --179808 --180053 -179284#3 -181035 -178189 -178925 -178597#1 -177985#2 -177504#7 -181149#0 --178935 -177761#4 -181598#1 --181471 -179360#1 -177343#1 -180158#0 -180230#3 --181366#0 -181034#2 -181662#1 --181307#5 --177507 -181383#0 --180656#2 -177504#8 --177925#7 -181420#0 -179972 -177468#1 --179287#2 --177636#0 --181377#0 -181111#3 -179967#0 --179802#1 -178057#19 --180341#0 -177516 -179691#4 -178367#0 --181662#0 -177561#0 -178892 -178298#1 --181264#3 -181436#2 --180982 -180214#0 --181149#2 -179651#16 --178850#0 --177468#1 --178570#0 -178214 --177349#1 --179400#5 -178410#6 -179222#0 -179808 --181023 -179649#0 --179134#1 -180999#3 --177484#3 -181169 -179118#1 -178766#2 -178983 --179787 --180816#1 -181692#1 -179681 -178585#1 -179466#13 -177505#0 -180477#4 -177911 -181221#0 -177624#0 --178319#1 -181164 -178319#1 -181054#0 -181201 -180610#1 --181524#1 -179191#3 -179185#0 -180430#0 -181395#1 --177692#3 --179248#1 --179711 -181605 -180331#2 -181380#0 --180071#2 -179558#0 --178585#1 --179243 -181356 --181295 -181312#2 -179097#2 -179587#1 -181669#5 --178516 --178173#1 -181264#0 --178813#0 -179565 --181307#3 -180973 -180515#0 --178237#8 -178358#1 -178020#2 --179307#3 --180440 --180746 -177748#0 -180418#1 --179367 --177499#0 -181253#1 --177417#1 -178970#4 -177484#3 -179847#1 -179572 -178539#1 -180586#6 -178641#0 --178367#8 -178311#4 -180477#1 --179220#1 --177805#0 -179248#0 --177484#1 -178558 -177891#1 --178056#1 --178190 --181504#0 --178082#0 -178686#10 --178460 --178033 -179373#1 -179073#2 -179268#0 --179587#3 -177697#3 --179895#0 -180586#5 --177880#0 --181118#2 --178736 -177521#0 -177803 -178020#9 --181366#1 --177639#2 --181076#2 -179501#2 -179881#4 --181142#0 -178056#1 --179558#5 -181658#1 -178426#0 -180552#1 -177761#3 -180961#1 -178410#4 -179576#2 --181264#0 --177864 -177950#3 --178060#1 -178166#0 -180095#1 -181504#0 --178319#3 --179186#0 --180549#0 -178503#2 --181111#7 --177701#1 -179554 -177467#1 --177522 --177541 -179034#2 --179526#2 -181384 --181428#0 --180348#0 -179552#1 -181176 -177667 -180539 -180941#2 --179893 -179307#1 --179020 --181201 -177790#2 --177438#1 -180009#0 --177621#0 --181149#0 --181169 -180002 -181100#1 --178815#0 -177783 -180987#4 --177957#0 -177522 --180390#3 -179631#2 -178410#0 -178607#0 -177349#1 -181170#3 --178367#1 --180173#2 -179284#6 --178064 -178686#3 --178014 --179222#5 --180418#1 -178194#0 --181632 -179962 -178743#2 --179558#6 -178526#10 --178166#1 --181682#0 --178739 --177727#0 -180999#2 --181221#2 -179395#4 -179929#1 --178607#4 --177920 --181097 --180051 -177697#4 -178136#1 -178059#3 --180832#0 -179287#2 -179248#1 -180610#0 --179567 -180355 -181026 -178992#3 --180260 -177515#0 -177639#2 -179220#1 --181646 --179669 -181023 -177558 --178593#0 -181457#5 -181420#1 --177803 -179818#1 -179111 -180665#4 -180586#15 -181256#1 -178466#0 -178456#2 --179268#2 --179655 -178898#5 -177916#1 -180230#1 --178410#0 --179676#1 --178747 -177925#4 -180941#5 -180006#0 --179818#2 --180584#0 --178686#10 --179873 --180796#2 --181662#1 -181662#0 --180999#2 --178157#1 -177891#0 --179744#4 --179638#0 --180230#2 -178237#3 --177733#0 --179858 --179847#0 --180756#1 -179343#3 -180280#1 --181176 -180173#4 --181111#6 --181634#0 -181359#1 --177698 --180230#3 -177957#5 --179851#2 --180792#1 -179060 -177790#0 --180928#4 -179818#0 -181264#2 -181457#2 --178655 --180221#2 --177753 --179744#0 --180006#0 --180221#0 --181420#1 -177706 -178190 -179239 --177907 -181017#4 --178200 --179363#1 --180114#0 -178649 -179322 --181064#2 --179501#2 --179565 -179587#4 -181312#1 --181377#8 --177553 --181591#0 -177834 -179429 --178673 -178020#5 -177697#5 -180653 --177916#4 --178237#9 -179455#2 --178571 --177707 -181289#1 --180108#0 --180160#0 --180939#2 -179335#1 -179498 -179869#0 -180151 -181427 -177957#6 -179260#0 --178746 -179895#2 -178237#6 -180229#2 -179558#2 --177957#7 --179311#1 -180285#0 -178591#1 -180945#0 -181691#1 --178194#1 -180832#0 --179526#0 --180390#1 -177925#1 --178010 -177467#2 --177484#0 -179526#0 -179851#4 --179166 -181414#3 -181524#2 --178250 -179086#0 -179658 -181264#3 -179703#0 -178607#4 -177953 -181383#1 -178194#3 --178391 --180153 --178410#6 --178319#0 -180280#0 -179669 -177421 -180173#0 -179935#1 --178237#12 -179642 --179025 --179311#2 -181366#2 -177438#3 -178885 --179575#0 --181264#1 --181629 -181131 --180173#0 --180009#0 --178667#2 --178375 --180792#2 -178152#1 -180586#2 -181660#2 -180597#0 --177344 --178150#2 -180947#1 -178898#9 -179222#1 --178667#0 -179586 -179575#2 -177793#0 -177666#3 --177561#1 -179373#2 --178940 -179400#5 -181638 -179466#1 -181494#2 --179186#1 --179482#0 -177912#4 --180120#0 -178850#0 -180678#0 -178385#4 -179466#2 -178503#3 -181366#3 -180656#2 --181170#3 --177639#3 --177735#3 -177710 -179676#1 --180987#4 -180121#0 -177521#2 --178641#0 --177884#0 --180496#3 -177438#2 -180381 -177791 -181669#1 -181436#0 -177922#2 -181457#4 --181384 -180837#2 --181356 -181585#1 -179558#5 -180184 -180597#1 -178686#0 -179482#1 -178020#1 --178933#2 -179284#8 -180496#3 -180928#3 --178296#0 -179576#1 --180987#0 --178889 --178539#1 --178408#3 -178173#1 --178607#3 -177488#0 -177846#0 -180221#0 -181359#2 -178044 -180238#0 --179248#2 --178896 -178166#1 --178235 -180160#0 --179455#2 --179744#6 -179879 -180248 -180496#0 -180669#0 -180173#1 --179289#1 --181157 -178057#24 --179569 -178503#0 -181114#1 --177516 --179575#4 --180390#4 --177701#0 --181111#5 --181524#2 -180301#1 --181033 -180283#1 --180331#0 -179596 --180446 --178561 --181377#6 -181494#4 --181312#0 -179651#18 -178970#1 -179651#14 -180152 --181307#7 --178858 --177622 -179501#0 -179136#1 -177912#6 --179554 --181673 -178870#1 --180496#0 -181348 --177592#0 --177950#3 -179400#0 -181197#1 -179034#1 --177916#1 --179485 -177957#4 --179558#1 -181028#3 -180173#3 -179083#2 -178137#2 --178296#4 -178633#1 -180982 -177979#1 -179691#6 --179420 -179170 -180905 -179526#1 -178005#0 --178416 -177979#0 --178570#1 --181268 -179893 --179786 -179138 --179179 -180659#0 -177805#1 --179642 -180799#0 -178970#0 -181414#0 -180298#1 --180515#0 --180669#0 -177639#3 -179186#1 -180549#1 -177925#5 -180114#0 -180423#0 -181598#0 -177639#0 --181386#1 -177417#0 -178385#3 -180488#0 -179574 --180002 --178500#0 -177872 -180341#0 -181659#0 -178319#0 -179631#0 -179097#3 -178585#2 -178197 -178870#0 --181680 -180230#0 --180006#1 -177631 --178336#0 --180639 --179260#1 --179501#1 -180271#0 --177957#2 -178456#1 -178933#3 -177950#2 -178743#0 -181650#0 -180071#2 -180532#0 --181414#1 --177925#6 -180883#0 -181111#2 --177308#1 -177419 -181524#1 --177943 -178566#0 --179221#0 --181566#0 -179220#0 -179400#6 --177421 --181377#7 -177748#1 --177916#2 -179464#0 -178673 -181034#1 -179587#3 --180315 -177676#1 -181017#0 -177957#9 --178311#5 -178933#1 --181076#1 --179455#3 --179006 -180647 -179869#1 -181166 --181366#3 --178575 --179851#0 --181039 --181075 -179967#1 -177761#2 -180446 -177793#1 --178408#0 --180167#0 --180939#0 --177970 -180348#1 -181524#4 -177692#2 -178303 -179143#1 -181681#2 --179335#1 --179942 -181017#2 --180816#0 -177884#0 -181302#3 --181037#1 --181034#1 --181566#4 -179570 -177624#6 -181163#3 --177925#2 -180586#13 -181662#2 -179252 -180847 --178686#8 --180760 -181149#2 -179845 --179217 -179714 -178428#0 -180301#0 -180504#1 -181289#0 --181329 -181367 --181100#0 --181164 --180988#0 -178940 -180522 --178925 -181307#7 --181131 --179778#1 --180945#0 --181383#1 -178641#4 --177666#2 --179216#1 -181216 -177925#6 --178983 --181114#0 -178693 --181302#2 --178539#0 -180488#1 -181366#0 --181227#1 -178235 -180280#3 --180755#1 -179253 --178686#1 --178056#0 -177406#1 -179407#0 -178150#0 --178930 -181504#1 -178056#0 -180928#0 -178219#1 -178703#2 --177379#2 -177624#2 -180532#1 -177912#1 --178566#1 --179638#2 --180214#0 --180301#0 -180631#1 -181221#2 --180842#1 -181480#0 --180710 -180639 -180871 -178858 -177592#2 --179740 -181097 -178020#3 -180659#2 --178667#1 --180999#0 -181414#1 --179744#8 -179373#0 -181669#7 -178930 --179060 --181485 --181377#2 --179919 -178699#0 --179677 --179929#1 -177805#0 -181494#1 -178162 -178426#1 -178136#3 --181166 --179136#1 -181114#0 -177499#0 -181682#0 -179460 --179220#0 --178846#1 -178898#8 --180471 --180331#2 -177666#4 -180173#2 --179482#1 -181591#1 -178846#0 -177639#1 -177463 -178082#1 -181585#0 --179526#1 --178279 -178152#3 --178568#1 --180987#2 -178367#6 -178667#1 --178730#0 -181075 -178137#1 --180842#0 -181134#1 -181681#4 -180586#23 -178460 --181227#0 -177504#6 --181299 -177735#2 --178137#2 -177417#1 -179902 -179363#1 -180799#2 -179920 --179164 -177676#0 -181111#5 -181359#0 -180385#2 --180250 --179275#2 -177504#4 -181028#1 --180987#3 --179253 -178194#1 --180656#1 --180301#1 --180331#1 -180832#1 -181117 -180678#1 -178874#1 --179307#1 --180549#1 --179345 -177744 --178007#1 --180669#1 --181035 -180477#2 -181300#0 --177815 --179083#3 --180531 -178967#0 -180423#1 -181546 --179748 --179575#1 -178483 --180832#1 -180023#1 --181377#5 --178743#1 -180214#1 -180424 --178082#1 --177666#3 -179740 -179946#1 -181377#6 --177667 -177523#0 -181209#1 -178898#11 -177352#2 -181457#0 -179367 --179547#0 -178593#1 -179677 -178128 -177735#3 --178870#1 --180905 --181302#3 --179450#1 -178109#0 -181300#4 -177504#3 -181669#0 --180577 --181114#1 -178898#2 --178933#0 --179778#5 --181650#0 -180298#3 -178391 -180264#4 -181480#2 --177891#1 --179869#1 -178250 -179778#2 -180724#0 -179183 --177521#1 -177916#0 -180229#1 -180107#2 --178155 -179260#1 --178597#1 -179455#1 --181494#0 -180980 -177880#0 --178128 -179847#0 -179311#2 --178671#0 -178813#0 -178016#1 -181412#3 --177406#1 -178367#5 -178751#3 -177383#1 --178613 -179867 -181646 -178575 -178667#2 -181256#0 --179501#0 --179283 --181670 -180988#2 -180665#2 -180878 -180108#0 -177666#1 -180574 --181081 --177592#1 -179411 -180928#2 -181457#3 --177727#2 --180151 -178219#0 -179651#15 --179682#0 --178933#1 -177697#2 --177666#4 --180977#1 --181386#0 -178739 --181377#1 --181383#0 --180532#1 -178020#7 --180999#3 -177864 -180077 -177629 -179802#0 -177728 --177460#1 --180108#2 --179851#1 -179164 -179039 --177811 --180665#0 --181524#4 --179547#1 -177854#0 -179733#2 -180721 -181256#2 -177539 -181660#5 -178367#4 --181264#4 -179335#3 -178751#2 -180816#1 --180928#0 -181076#0 --179268#1 --180559 -178244#1 -178535#0 --178194#2 -180586#26 -181377#8 -179094#1 -180071#1 --180221#3 -181064#1 -177933 -177701#0 --179572 -179873 -180150#1 -178408#4 -180107#0 --181616 -177957#2 -177753 -179092 --179869#0 --180238#1 -178155 --179516 -178561 --181221#3 -178526#3 --179631#3 --181414#4 -178311#2 -177434 --179744#7 --180296 -177846#1 --180591 --179343#0 -178057#25 -179062#0 -178358#0 --177521#2 --177302#0 --179472 -181253#0 -177916#4 -181377#7 --177926#1 --177926#4 --179377#0 --179754 --180532#0 -181681#3 --178136#3 -181163#2 -179682#0 --178730#1 --181359#1 --178539#3 -181064#3 -179778#3 --180072#0 -177943 --179631#0 --178237#10 -181366#1 -181039 --180496#2 -178686#5 -180285#1 -177846#2 --181234#2 -179307#2 -178410#3 -181307#3 --178457 --180184 -178007#0 --180508#1 -179083#0 -177622 --177639#4 --181609#2 -179526#2 -177922#1 -180576 --179476 --179558#2 -180945#2 -179345 -179516 -179738#0 -181520#0 -177460#0 -181566#1 -180837#0 -177624#1 --181100#1 -177707 -177989#1 --177468#0 --178566#0 --178686#2 --179400#6 -181566#2 --178818#1 --177554 --180988#2 --179585#1 --180595 -179197 -181436#1 -179359 --180847 --178644 --180341#1 -179400#2 -180961#4 --181494#2 -178060#1 -178864#2 -177970 --178597#0 -181159#0 --179638#1 -178375 --181239 --177950#1 -177912#3 --179785#0 -181111#6 --181337 -181566#4 --177692#2 -181692#3 -181299 -181234#0 --180792#0 -181494#0 --177438#2 --180357 --180390#0 --181350 -178699#1 --179238 -181135 -177460#1 -181634#1 -179311#0 -180341#1 -180260 --179682#1 -179305 -179093#1 --179307#0 -181142#0 --177376 -177302#0 -178743#1 --178407 -179216#0 -181616 -178109#1 --180977#0 -178245 -178150#1 -180114#1 -180633#0 -180497 -180837#1 --179394#1 --177438#3 --178296#1 --178244#1 -180961#3 -178748 --180146 --178428#0 --178367#0 --178410#2 --177676#1 -177561#2 -179221#0 -178864#3 -179407#1 -181574 --178743#2 --178520 --180881 -179787 --179311#0 --180742 --180298#1 -177621#0 -179517#1 --177916#3 -178137#3 -181295 --178152#1 -179268#1 --178585#3 -180964#0 -178832 --181480#2 -181076#3 -179191#1 --177379#0 -177854#1 -179284#9 --178568#0 -179450#0 -180385#4 -178751#1 -181300#2 -181329 --181546 --181480#0 -181076#2 --178243 -178915 --180390#2 -177925#3 -181236#3 -180826 --178194#0 -177733#1 --181234#0 --181312#2 --179847#1 -180120#0 --181064#1 -179774 -181118#2 -178152#2 --180277 -180593 -177304 -181412#5 --178408#6 --180579#0 -178864#0 --177727#1 --178237#4 --180878 --181221#1 -178166#2 --180913#0 -178526#8 -179691#5 --181118#3 --181135 --179986 -178898#10 -180385#3 -179191#0 -179186#0 --180597#1 --180504#0 -181669#3 --179890 -181311 --181054#1 -177697#6 --180945#2 -181227#1 --179083#2 -178296#3 --180221#1 -180477#0 --180498 --180644#1 -178311#1 -180977#1 -181028#5 -180987#3 --179373#1 -177957#7 -180656#1 --178828 -177957#0 -177827#1 -180586#19 -180760 --178025 -181330 --179596 -181221#1 -177671 --179335#0 -177916#2 -180586#22 -178526#9 --181669#9 --179778#0 -180221#1 --181566#2 --178466#0 -177761#1 -181377#5 --181363 -178193 -179744#1 -181227#2 --178311#1 -181691#0 --179339 --178193 -179482#0 -180498 --181662#2 -178057#20 --177417#0 -178736 -180508#1 --181605 -179575#0 -177587 --179455#1 -181377#4 -179083#3 -180999#0 -181312#3 --178809 --179460 --179851#4 -179335#0 --178408#7 --180272 --181686 -178730#1 --178607#0 --178585#2 --181504#1 -178064 -178526#0 -178641#3 -181302#1 -181377#0 --179248#0 --178850#1 -180385#1 --177842 -177842 --181691#1 --178367#10 --179424 --178456#0 -178585#3 --178632 -178721 -179818#2 -180390#5 --178137#3 -178898#14 --178060#0 -178655 -177379#2 -177579 --178152#2 --179929#0 -180072#1 -178503#1 -181337 --181634#1 --180659#0 -178632 -177811 -180285#3 -177515#2 -179766 -180941#3 -177972 -180579#0 -177507 --181669#7 --181591#1 --178832 -177349#0 --178408#1 -181609#1 -179272 --180755#0 -180333 -181363 -178516 --177925#4 --181264#2 --178435 -180936 --177710 --177735#2 --180173#4 -178007#1 -179651#20 -177321 -179738#1 -178850#2 --181585#0 -180229#0 --181064#3 -177790#1 -181221#3 --177912#1 --178686#6 -181387#0 --178633#1 -178336#1 --179335#3 -177697#1 -181457#6 -181234#1 --181221#0 --177988 -178237#10 --178641#3 -181338 --180945#1 --178296#3 -180053 -178539#3 -178526#2 -178613 -179134#1 -181307#0 --180353 --181234#1 --180381 -179563 --181307#0 -179058 -178898#7 --180238#0 -180390#4 -180006#1 -179889 -179284#1 -178643 -179823 -178048 -178898#12 -179394#0 --177434 -181037#1 -179890 -180496#2 --177953 -180264#0 --181377#4 --178558 --177639#1 --178686#3 -177499#2 --178194#3 -178020#6 -179929#2 -178145 -178457 --177321 -178157#2 -179061#0 --181289#1 --177592#2 --178591#1 -177815 -179466#12 --181054#0 -178435 -180051 -180107#1 -177994 -181092 -178416 -180549#0 --177916#0 --181513#1 --177676#0 -177387#0 -179284#5 -180941#1 -179567 -181064#2 -181566#0 -179676#0 -178298#0 --178175 -179649#1 --180801#0 -178016#4 -179217 --179935#1 -180633#1 --178367#6 --179363#0 --179222#2 -180999#1 --181302#0 --181264#6 -179501#1 --178044 --178686#0 --178818#0 -179631#1 --178367#5 --180631#2 -177343#0 --178671#1 --179895#4 -178491 -179510 -179420 -178296#1 -181658#0 -179476 --180913#1 -180977#0 -179046#1 --178456#3 -179895#4 --180110#0 --181264#5 --178623#1 --178157#2 -178408#6 -179222#4 -179575#4 -179284#4 --181609#0 --181111#1 -179343#1 -180586#3 --180665#1 --181111#4 -178568#1 -181669#12 -181163#4 -178818#1 -180842#0 -179400#3 --179558#0 -178967#2 -180040 --180268#0 -178385#1 -180586#20 --178060#2 --181076#0 -178367#2 -179881#1 -180531 --180071#1 -180508#0 --181170#2 -181234#3 -181377#3 --179631#1 -181170#2 -179651#17 --181118#1 -179289#1 -180108#2 -178200 --179286 -178296#2 -177438#0 --180430#0 -179929#0 -180298#0 -178500#0 -181033 -181692#2 --178061 --179719 -177807 --179935#0 -178916#1 -180947#0 -179268#2 -178730#3 --180150#0 --178831#0 -179407#2 -180577 -179307#3 -177358 --177891#2 -181319 -178408#3 --177926#3 -179785#2 --177719 --177349#0 --178650 -179582 --178870#0 --181494#4 -177548 -180023#0 --181669#3 -178061 --179450#0 -179185#1 --179463#1 -181170#1 --178607#1 -181234#2 --177352#2 -178889 -177985#0 -179333#2 -179585#1 --181312#1 -179143#0 --180597#0 -180586#14 -178410#2 --177957#5 -180988#1 --181609#1 -178831#1 -178358#2 --181669#0 -180746 -178082#0 -178269#2 -179942 -177411 -178528 -178933#0 -179778#4 -180991#1 -177692#3 --178145 --178633#2 --178567 -180586#16 -180692#1 -178407 -181268 --177881 -181170#0 -179034#3 --179343#1 -181227#0 -179466#5 -179222#3 -179046#0 -178593#0 -180477#3 --181149#1 -177991 -178057#21 --177629 -179648 --177561#2 --181253#0 -179166 -181142#2 --179359 -177521#1 -179469 -179738#2 -180756#0 --179185#1 --181300#1 -180665#1 -179466#6 -178686#7 --178394#0 --177358 --178633#0 --178686#5 --181366#2 --178219#0 -178590 --177979#0 -179311#1 -178794 -178010 -177661 -181412#1 -177649 -179179 -180881 --179464#0 -177701#1 -179094#2 -178150#2 -179455#0 --178367#7 -181412#4 -179638#2 --178245 -178570#0 -179455#3 -181673 -180150#0 --179744#3 -178667#0 -180799#1 --179778#3 --181513#0 --180659#3 -178319#3 -180796#0 -180586#25 -180939#0 -177383#0 --177499#1 -179395#1 --181414#3 -180801#1 --178623#0 -178815#0 --180419 -180910 -179375 --179343#2 --177406#0 -178237#9 -179216#1 -180644#1 --179681 --180631#1 --180120#1 --177925#3 --177666#1 --181566#1 --181234#3 -179682#1 --179895#2 -178336#0 --177558 -177719 --179766 -181047 --179268#0 --180576 -181481 --177827#1 -181669#9 -180280#2 -180595 --178150#1 --177460#0 -178016#2 --178591#0 --181300#0 -181111#4 --179818#0 -177733#0 -178633#0 --181530 -180419 -178367#7 --178916#1 -179719 --181494#1 -180792#1 --178237#11 --180271#0 -179625 -181632 -178439#0 -178408#5 -181264#6 --178007#0 -181301 --180214#1 --177735#1 -177467#0 -180586#4 -181149#1 --179083#0 --179929#2 --181177 --178633#4 -179222#2 --178533 -178686#1 -181513#1 -178567 -180945#3 -181300#1 --181490 --177499#2 -179275#0 -179778#1 -179238 -179895#1 --179222#1 -181377#9 -178079 -179284#7 -181634#0 -179191#4 --178410#3 -180129#0 -179286 -179558#1 -178522 -180167#0 -180430#1 -177727#2 --177649 -177666#2 -178508 -181118#1 --178815#1 -178970#3 --181312#3 --177912#0 --180692#0 -180578 --178166#0 -178539#2 -180218 -179394#1 -178533 -178296#0 -180296 --181300#4 -181650#1 --180928#2 -177698 --179714 -178059#4 -179450#1 --178214 -178526#6 --179558#3 -178568#0 -177406#0 --179252 -178650 --181427 -180230#2 -181414#2 -178093#1 -180941#4 -179585#0 --179676#0 -178311#0 --181366#4 -181313 --179086#0 -179881#3 -178194#2 -179623 --179464#1 -180160#1 -180710 --178885 -180469 --178933#4 --179471 --179867 -178517#2 --179962 -181643 -181457#7 --179839#1 -180586#27 -180755#0 -180283#2 --180173#3 -179788#2 -178394#0 --181494#5 --180355 --177925#1 --181414#2 -177481#13 -180504#0 -178809 --178541 --181117 --177671 --180539 -179400#4 -179575#1 -180988#0 -178175 -180961#5 -177624#4 --179558#7 --180522 --179744#2 -179156 -177563 -181669#14 -179695 --178933#3 -178059#2 -180832#3 -179284#2 -180390#3 --177304 -181387#1 --181111#2 -177925#8 --179946#0 -180841 -178618#1 -180146 --180610#1 -180614 --180947#0 --177884#1 --179185#2 --180665#4 --177805#1 -178020#4 -179290 -178439#1 --179039 -178746 -178566#1 -180928#4 -181457#1 -177561#1 -178296#4 --178166#2 -177881 -178372#1 --178449 --180121#0 -178704#3 -179651#19 -178016#0 -181659#3 -181118#3 --180947#1 -180471 -179006 --178686#11 -178025 -177504#5 -177308#1 --180319 -178686#8 -181609#0 -180591 -178686#6 -177624#7 -178152#0 -180264#3 -180724#1 -180796#1 --181669#10 --180928#3 -177727#3 -181377#1 -179576#0 --181691#0 -179638#0 --181042#5 --177793#1 --179111 --181170#1 -179744#5 --178641#2 --180987#1 --181669#1 -179569 -180941#0 --181359#2 -181100#0 --178137#0 -178704#0 --178456#2 -181659#1 --178152#0 -180816#0 -181412#0 -179547#1 --180114#1 --178367#4 -177376 -179466#4 --177991 --180298#0 --178730#3 --181389 -178265 --180023#0 --180950 -179744#6 -177922#0 -181017#6 --179623 --179625 -181028#4 --177957#10 --178336#1 -181591#0 -177925#7 --178311#4 --181302#1 -179558#7 --181669#5 --178590 -181497#1 --179239 --180430#1 --180796#0 -180631#2 -178633#4 -180586#17 --179774 -178456#0 --177639#0 -179907#1 --180721 -178057#23 -178898#3 -181660#6 -179785#0 --181319 -179222#5 -179587#5 -178057#22 -180331#1 --178152#3 -177918 --180348#1 -181696 --178686#7 --180077 --179289#0 -178704#4 --179222#0 -178059#0 -179339 -180264#1 --181574 --179083#4 --177994 -178686#9 --179907#0 --181289#0 -177484#1 -179946#0 --178162 -178730#4 -179881#2 -181428#0 --181139 --179322 --180631#0 -178641#2 --180871 -179744#2 -180945#1 -181111#1 -178896 --179587#5 -178367#10 --178831#1 -177592#1 -181669#8 --177419 -179395#3 --178846#0 -180792#0 --180424 -180586#1 -181197#0 -180390#2 --178539#2 -180755#1 --181311 -177735#1 --178136#0 -178633#2 -181239 -179466#10 -180072#0 -178020#0 -181054#1 --178686#9 -179744#0 -181471 -179744#8 --181669#8 --179058 -177624#8 -179744#7 -181680 --179892 --179926 --179305 -178766#1 --178136#2 --180999#1 -179935#0 -177379#0 --179585#0 -181497#0 --179343#3 -177592#0 --178372#1 -179558#3 --177911 --177308#3 --178408#4 -181302#2 -180087 --180801#1 --177744 --179455#0 -179466#0 -178132 --178109#0 -178969#0 -180300 -178237#4 -180961#0 -181074 --178136#1 --179411 -177925#2 -181076#1 -181264#1 --180230#0 -178898#4 --181312#4 --179946#1 --179972 --179046#1 --177957#9 -179907#2 -178408#1 --178410#4 --180283#1 --181377#9 -179086#1 -181028#2 -179117 --179587#4 --180283#2 -178671#1 -178815#1 -180792#2 -179752#0 -180987#2 --181428#1 --180040 -181428#1 -178367#1 -181350 -179221#1 -181312#4 -179558#6 -178526#5 -178671#0 -181389 -178284 -177308#3 -181609#2 --177933 --181585#1 --178263 -177344 --178137#1 --180087 -179283 -181163#1 -179025 -181494#5 -178367#8 -180348#0 -178952#2 -178033 --177411 --179307#2 --178311#0 --180173#1 --179216#0 -177407 -180277 -180913#1 -177926#1 -179168#0 -179754 -178641#1 --180796#1 -179093#0 -179802#1 --177561#0 -178060#2 -181373 --179170 --177827#0 -178526#1 -181017#3 -178539#4 --179197 -178541 --177950#2 -178014 --177521#0 -178531#0 --178730#4 --178394#1 -179289#0 -178279 --180508#0 -181524#0 --181650#1 -180250 -180644#0 --181524#0 --180992 --178197 -179424 -181660#1 -179020 --180614 --178743#0 -178237#8 -179744#4 -181134#0 -181017#5 -181681#0 -178520 -181686 --179744#1 --180333 --180756#0 -181513#0 -179788#0 --179260#0 -178623#1 -177697#0 -178597#0 --180218 -180742 -177989#2 --180692#1 -180659#3 --180339 -179062#1 -178157#1 -178623#0 --177872 -180756#1 -180268#0 -180631#0 -177891#2 -179851#2 -179248#2 -181312#0 --179563"/>
    <!-- id="-2036" name="Lissasfa Nord" -->