<?xml version="1.0" encoding="UTF-8"?>

<!-- Generated with SUMO Activity-Based Mobility Generator [https://github.com/lcodeca/SUMOActivityGen] -->

<routes xmlns:xsi="http://www.w3.org/2001/XMLSchema-instance" xsi:noNamespaceSchemaLocation="http://sumo.dlr.de/xsd/routes_file.xsd"> 
    <vehicle id="on-demand.0" type="on-demand" depart="0.0">
        <route edges="--178202#2"/>
        <stop lane="--178202#2_1" startPos="1.0" endPos="-1.0" triggered="person"/>
    </vehicle>
    <vehicle id="on-demand.1" type="on-demand" depart="0.0">
        <route edges="--180495#4"/>
        <stop lane="--180495#4_1" startPos="1.0" endPos="-1.0" triggered="person"/>
    </vehicle>
    <vehicle id="on-demand.2" type="on-demand" depart="0.0">
        <route edges="--178050#1"/>
        <stop lane="--178050#1_1" startPos="1.0" endPos="-1.0" triggered="person"/>
    </vehicle>
    <vehicle id="on-demand.3" type="on-demand" depart="0.0">
        <route edges="--179583#1"/>
        <stop lane="--179583#1_1" startPos="1.0" endPos="-1.0" triggered="person"/>
    </vehicle>
    <vehicle id="on-demand.4" type="on-demand" depart="0.0">
        <route edges="--178182#0"/>
        <stop lane="--178182#0_1" startPos="1.0" endPos="-1.0" triggered="person"/>
    </vehicle>
    <vehicle id="on-demand.5" type="on-demand" depart="0.0">
        <route edges="--178247"/>
        <stop lane="--178247_1" startPos="1.0" endPos="-1.0" triggered="person"/>
    </vehicle>
    <vehicle id="on-demand.6" type="on-demand" depart="0.0">
        <route edges="-181642#0"/>
        <stop lane="-181642#0_1" startPos="1.0" endPos="-1.0" triggered="person"/>
    </vehicle>
    <vehicle id="on-demand.7" type="on-demand" depart="0.0">
        <route edges="-180843#1"/>
        <stop lane="-180843#1_1" startPos="1.0" endPos="-1.0" triggered="person"/>
    </vehicle>
    <vehicle id="on-demand.8" type="on-demand" depart="0.0">
        <route edges="-181571#12"/>
        <stop lane="-181571#12_1" startPos="1.0" endPos="-1.0" triggered="person"/>
    </vehicle>
    <vehicle id="on-demand.9" type="on-demand" depart="0.0">
        <route edges="-178810#1"/>
        <stop lane="-178810#1_1" startPos="1.0" endPos="-1.0" triggered="person"/>
    </vehicle>
    <vehicle id="on-demand.10" type="on-demand" depart="0.0">
        <route edges="--179986"/>
        <stop lane="--179986_1" startPos="1.0" endPos="-1.0" triggered="person"/>
    </vehicle>
    <vehicle id="on-demand.11" type="on-demand" depart="0.0">
        <route edges="-180871"/>
        <stop lane="-180871_1" startPos="1.0" endPos="-1.0" triggered="person"/>
    </vehicle>
    <vehicle id="on-demand.12" type="on-demand" depart="0.0">
        <route edges="-178421#0"/>
        <stop lane="-178421#0_1" startPos="1.0" endPos="-1.0" triggered="person"/>
    </vehicle>
    <vehicle id="on-demand.13" type="on-demand" depart="0.0">
        <route edges="--181452#0"/>
        <stop lane="--181452#0_1" startPos="1.0" endPos="-1.0" triggered="person"/>
    </vehicle>
    <vehicle id="on-demand.14" type="on-demand" depart="0.0">
        <route edges="-177925#0"/>
        <stop lane="-177925#0_1" startPos="1.0" endPos="-1.0" triggered="person"/>
    </vehicle>
    <vehicle id="on-demand.15" type="on-demand" depart="0.0">
        <route edges="-177644"/>
        <stop lane="-177644_1" startPos="1.0" endPos="-1.0" triggered="person"/>
    </vehicle>
    <vehicle id="on-demand.16" type="on-demand" depart="0.0">
        <route edges="-178969#1"/>
        <stop lane="-178969#1_1" startPos="1.0" endPos="-1.0" triggered="person"/>
    </vehicle>
    <vehicle id="on-demand.17" type="on-demand" depart="0.0">
        <route edges="-179136#1"/>
        <stop lane="-179136#1_1" startPos="1.0" endPos="-1.0" triggered="person"/>
    </vehicle>
    <vehicle id="on-demand.18" type="on-demand" depart="0.0">
        <route edges="--177827#0"/>
        <stop lane="--177827#0_1" startPos="1.0" endPos="-1.0" triggered="person"/>
    </vehicle>
    <vehicle id="on-demand.19" type="on-demand" depart="0.0">
        <route edges="-181678#3"/>
        <stop lane="-181678#3_1" startPos="1.0" endPos="-1.0" triggered="person"/>
    </vehicle>
    <vehicle id="on-demand.20" type="on-demand" depart="0.0">
        <route edges="-181420#0"/>
        <stop lane="-181420#0_1" startPos="1.0" endPos="-1.0" triggered="person"/>
    </vehicle>
    <vehicle id="on-demand.21" type="on-demand" depart="0.0">
        <route edges="-180844"/>
        <stop lane="-180844_1" startPos="1.0" endPos="-1.0" triggered="person"/>
    </vehicle>
    <vehicle id="on-demand.22" type="on-demand" depart="0.0">
        <route edges="-178629#1"/>
        <stop lane="-178629#1_1" startPos="1.0" endPos="-1.0" triggered="person"/>
    </vehicle>
    <vehicle id="on-demand.23" type="on-demand" depart="0.0">
        <route edges="-177749"/>
        <stop lane="-177749_1" startPos="1.0" endPos="-1.0" triggered="person"/>
    </vehicle>
    <vehicle id="on-demand.24" type="on-demand" depart="0.0">
        <route edges="-177730"/>
        <stop lane="-177730_1" startPos="1.0" endPos="-1.0" triggered="person"/>
    </vehicle>
    <person id="-2036_-2036_24" type="pedestrian" depart="16314.13">
        <walk edges="--177580#5 --178179#1 -177448#2 -177448#4 -179651#2 -179651#5 -179651#7 -179651#9 -179651#10 -179651#12 -179733#0 -180586#13 -179651#14 -179651#15 -179651#16 -179651#17 -179651#18 -179651#19 -179651#20 -177552#4 -177532#0 -177532#1 -179517#1 -181659#3 -181659#2 -181659#1 -181659#0 -181457#7 -181457#6 -181457#5 -181457#4 -181457#3 -181457#2 -181457#1 -181457#0 -180423#1 -180423#0 -177922#2 -177922#1 -177922#0 -180280#4 -177481#13 -177481#12 -177481#11 -177481#10 -177481#9 -177481#5 -177481#1 -177481#0 -180596#1 -180596#0 -180624#3 -180624#2 -178201#2 -178201#3 -178201#4 -178201#5 -180632#2 -180632#1 -180632#0 -178540 -177519#2 -177519#1" arrivalPos="141.20350068472993"/>
        <stop lane="-177519#1_0" duration="29238.296545662943" actType="P-Work"/>
        <walk edges="-177519#1 -177519#0 -178315#3 -178315#2 -178315#1 -180596#0 -180596#1 -177481#0 -177481#1 -177481#5 -177481#9 -177481#10 -177481#11 -177481#12 -177481#13 -180280#4 -177922#0 -177922#1 -177922#2 -180423#0 -180423#1 -181457#0 -181457#1 -181457#2 -181457#3 -181457#4 -181457#5 -181457#6 -181457#7 -181659#0 -181659#1 -181659#2 -181659#3 -179517#1 -177532#1 -177532#0 -177552#4 -179651#20 -179651#19 -179651#18 -179651#17 -179651#16 -179651#15 -179651#14 -180586#13 -179733#0 -179651#12 -179651#10 -179651#9 -179651#7 -179651#5 -179651#2 -177448#4 --177476#1 --177580#5" arrivalPos="75.1078027192132"/>
        <stop lane="--177580#5_0" duration="1.0" actType="Home"/>
    </person>
    <person id="-2036_-2036_66" type="pedestrian" depart="17595.78">
        <walk edges="--177580#5 --178179#1 -177448#2 -177448#4 -179651#2 -179651#5 -179651#7 -179651#9 -179651#10 -179651#12 -179733#0 -180586#13 -179651#14 -179651#15 -179651#16 -179651#17 -179651#18 -179651#19 -179651#20 -177552#4 -177532#0 -177532#1 -179517#1 -181659#3 -181659#2 -181659#1 -181659#0 -181457#7 -181457#6 -181457#5 -181457#4 -181457#3 -181457#2 -181457#1 -181457#0 -180423#1 -180423#0 -177922#2 -177922#1 -177922#0 -180280#4 -177481#13 -177481#12 -177481#11 -177481#10 -177481#9 -177481#5 -177481#1 -177481#0 -180596#1 -180596#0 -178315#1" busStop="-641485"/>
        <ride busStop="-644367" lines="T1:1" intended="pt_tram_T1:1.11" depart="21535.0"/>
        <walk edges="-180944 -180934#3" arrivalPos="34.72786731520915"/>
        <stop lane="-180934#3_0" duration="23813.403757205815" actType="P-Work"/>
        <walk edges="-180934#3 -180944" busStop="-645143"/>
        <ride busStop="-639363" lines="T1:0" intended="pt_tram_T1:0.52" depart="45971.0"/>
        <walk edges="-178315#1 -180596#0 -180596#1 -177481#0 -177481#1 -177481#5 -177481#9 -177481#10 -177481#11 -177481#12 -177481#13 -180280#4 -177922#0 -177922#1 -177922#2 -180423#0 -180423#1 -181457#0 -181457#1 -181457#2 -181457#3" busStop="-643641"/>
        <ride busStop="-637264" lines="L13:1" intended="pt_bus_L13:1.54" depart="47606.0"/>
        <walk edges="-180843#3 -180843#2 -180843#1 -177552#4 -179651#20 -179651#19 -179651#18 -179651#17 -179651#16 -179651#15 -179651#14 -180586#13 -179733#0 -179651#12 -179651#10 -179651#9 -179651#7 -179651#5 -179651#2 -177448#4 --177476#1 --177580#5" arrivalPos="22.70767377309186"/>
        <stop lane="--177580#5_0" duration="1.0" actType="Home"/>
    </person>
    <person id="-2036_-2051_4" type="pedestrian" depart="18483.69">
        <walk edges="-179349#4" busStop="-639363"/>
        <walk edges="-178315#1 -180596#0 -180596#1 -177481#0 -177481#1 -177481#5 -177481#9 -177481#10 -177481#11 -177481#12 -177481#13 -180280#4 -177922#0 -177922#1 -177922#2 -180423#0 -180423#1 -181457#0 -181457#1 -181457#2 -181457#3 -181457#4 -181457#5 -181457#6 -181457#7 -181659#0 -181659#1 -181659#2 -181659#3 -179517#1 -177532#1 -177532#0 -178810#0 -178810#1 -178810#2 --181615#0 --180579#0 -181042#5 --181042#4 --181042#3 --181042#1 --181042#0 -177666#0 -179819#2 -179819#3 -180067#7 -179045#1 -179045#2 -180067#11 -180583#0 -180583#1 -179747 -180067#14 -180067#15 -180067#16 -180067#17 -180720#8 -180720#9 -179444 -180234#4 -180234#5 -180234#6 -180234#7 -180409#3" arrivalPos="20.86309416178437"/>
        <stop lane="-180409#3_0" duration="32286.11442136531" actType="P-Work"/>
        <walk edges="-180409#3 -180234#7 -180234#6 -180234#5 -180234#4 -179444 -180720#9 -180720#8 -181571#1 -181571#2 -181571#3 -181571#4 -181571#5 -178365#0 -177731#4 -181571#7 -179045#2 -179045#1 -180067#7 -179819#3 -179819#2 -179819#1 -179819#0 -180067#4 -177497#10 -177497#9 -177497#8 -178810#4 -178810#3 -178810#2 -178810#1 -178810#0 -177532#0 -177532#1 -179517#1 -181659#3 -181659#2 -181659#1 -181659#0 -181457#7 -181457#6 -181457#5 -181457#4 -181457#3 -181457#2 -181457#1 -181457#0 -180423#1 -180423#0 -177922#2 -177922#1 -177922#0 -180280#4 -177481#13 -177481#12 -177481#11 -177481#10 -177481#9 -177481#5 -177481#1 -177481#0 -180596#1 -180596#0 -179349#4" arrivalPos="218.6729118542344"/>
        <stop lane="-179349#4_0" duration="1.0" actType="Home"/>
    </person>
    <person id="-2081_-2036_2" type="pedestrian" depart="18900.75">
        <walk edges="--178310#6 --178310#5 --178310#4 --178310#2 -179559#4 -179559#5 -179559#6 -179559#7 -179662#0 --179662#1 --179071#9 --179071#10" busStop="-646024"/>
        <ride busStop="-646556@-2064" lines="72:0" intended="pt_bus_72:0.8" depart="19502.0"/>
        <walk edges="-177603#2" busStop="-647875"/>
        <ride busStop="-629455" lines="L63:0" intended="pt_bus_L63:0.8" depart="19626.0"/>
        <walk edges="-180475 -180141#2 -180141#3 -180141#4 -178087" busStop="-631403"/>
        <ride busStop="-632608" lines="T2:1" intended="pt_tram_T2:1.9" depart="19993.0"/>
        <walk edges="-180217#11 -179564#4 -178320#8 --178320#9 --178320#12 --178320#13 -179133#3 -179133#2 -179133#1 --178028#5 --178028#6 --178028#7 -180843#2 -180843#1 -177532#0 -177532#1 -179517#1 -181659#3 -181659#2 -181659#1 -181659#0 -181457#7 -181457#6 -181457#5 -181457#4 -181457#3 -181457#2 -181457#1 -181457#0 -180423#1 -180423#0 -177922#2 -177922#1 -177922#0 -180280#4 -177481#13 -177481#12 -177481#11 -177481#10 -177481#9 -177481#5 -177481#1 -177481#0 -180596#1 -180596#0 -179412#0 -179412#1 -178722#5 -179594#1 --181698#8 --181698#5 --181698#4 --178359#1" arrivalPos="16.92411439856328"/>
        <stop lane="--178359#1_0" duration="26440.376204007134" actType="P-Work"/>
        <walk edges="--178359#1 --181698#4 --181698#5 --181698#8 -179594#1 -178722#5 -179412#1 -179412#0 -180596#0 -180596#1 -177481#0 -177481#1 -177481#5 -177481#9 -177481#10 -177481#11 -177481#12 -177481#13 -180280#4 -177922#0 -177922#1 -177922#2 -180423#0 -180423#1 -181457#0 -181457#1 -181457#2 -181457#3" busStop="-643641"/>
        <ride busStop="-637264" lines="L13:1" intended="pt_bus_L13:1.61" depart="51806.0"/>
        <walk edges="-180843#3 -178702#2 -178702#1 -178702#0 -181697#7 -181697#8 -181697#9 -179133#1 -179133#2 -179133#3 -179133#6 -179133#7 -179133#8 -179133#9 -179133#10 -179133#11 -179133#12 -179133#13 -180843#8 --177372 -180843#10 -180778#0 -180074#1 -180329#0 -180329#2 -178845#0 -178845#1 -178544#0 -178544#1 -181154#1 -181154#2" busStop="-649549"/>
        <ride busStop="-646730" lines="T2:0" intended="pt_tram_T2:0.64" depart="53495.0"/>
        <walk edges="-179247#2 -178225#0 -178225#1 -178225#2 -178225#3 -178225#4 -178225#6 -178225#7 -178225#8 -181478 --179804#2 --177454 -178689#1 -178689#2 --177401#3 --177401#2 -177401#1 -177401#0 -180008#8 -180008#7 -180008#6 -180008#4 -180008#3 -180008#2 -180008#1 -180008#0 --178310#6" arrivalPos="17.479466735508225"/>
        <stop lane="--178310#6_0" duration="1.0" actType="Home"/>
    </person>
    <person id="-2036_-2030_4" type="pedestrian" depart="18964.66">
        <walk edges="-178195#2 -178195#1 -178898#23 -178898#22 -178898#19 -178898#18 -178898#17 -178898#16 -178898#14 -180586#6 -180586#5 -178898#11 -178898#10 -178898#9 -178898#8 -178898#7 -178898#6 -178898#5 -178898#4 --180271#0 -179517#1 -178285#0 -178285#1 -178285#2" busStop="-629960"/>
        <walk edges="-177624#2" busStop="-637416"/>
        <walk edges="-177624#1 -178623#0 -179034#1 -178157#2 -178157#1 --181118#1 -181118#2" arrivalPos="36.35012979753452"/>
        <stop lane="-181118#2_0" duration="31762.60504808106" actType="P-Work"/>
        <walk edges="-181118#2 --181118#1 -178157#1 -178157#2 -179034#1 -178623#0 -177624#1 -177624#2" busStop="-629960"/>
        <walk edges="-178285#2 -178285#1 -178285#0 -177552#1 -178892 -179946#1 --180759 -178898#2 -178898#3 -178898#4 -178898#5 -178898#6 -178898#7 -178898#8 -178898#9 -178898#10 -178898#11 -178898#12 -179733#2 -180586#6 -178898#14 -178898#16 -178898#17 -178898#18 -178898#19 -178898#22 -178898#23 -178195#1 -178195#2" arrivalPos="50.95076524561855"/>
        <stop lane="-178195#2_0" duration="1.0" actType="Home"/>
    </person>
    <person id="-2051_-2089_0" type="pedestrian" depart="19019.35">
        <walk edges="-178534#2 -178534#3 -178534#7 -178534#8 -178534#9 -178534#10 -178534#11 -178534#12 -179831#0 -179831#1 -179831#2 -179831#3 -179831#4 -179831#5 -177532#0 -177532#1 -179517#1 -181659#3 -181659#2 -181659#1 -181659#0 -181457#7 -181457#6 -181457#5 -181457#4 -181457#3 -181457#2 -181457#1 -181457#0 -180423#1 -180423#0 -177922#2 -177922#1 -177922#0 -180280#4 -177481#13 -177481#12 -177481#11 -177481#10 -177481#9 -177481#5 -177481#1 -177481#0 -180596#1 -180596#0 -180624#3 --179765#1" arrivalPos="203.30753110437573"/>
        <stop lane="--179765#1_0" duration="34732.64347153324" actType="P-Work"/>
        <walk edges="--179765#1 -180624#3 -180596#0 -180596#1 -177481#0 -177481#1 -177481#5 -177481#9 -177481#10 -177481#11 -177481#12 -177481#13 -180280#4 -177922#0 -177922#1 -177922#2 -180423#0 -180423#1 -181457#0 -181457#1 -181457#2 -181457#3 -181457#4 -181457#5 -181457#6 -181457#7 -181659#0 -181659#1 -181659#2 -181659#3 -179517#1 -177532#1 -177532#0 -178810#0 -178810#1 -178810#2 -178810#3 -178810#4 -177497#8" busStop="-645324"/>
        <walk edges="-177497#9 -177497#10 -178156#11 -178156#10 -178156#9 -180978 -178068#0 -178068#1" busStop="-641652"/>
        <walk edges="-178534#8 -178534#7 -178534#3 -178534#2" arrivalPos="13.333592663605215"/>
        <stop lane="-178534#2_0" duration="1.0" actType="Home"/>
    </person>
    <person id="-2036_-2036_2" type="pedestrian" depart="19082.53">
        <walk edges="-178186 -177557#1 -177557#0" busStop="-645143"/>
        <ride busStop="-639363" lines="T1:0" intended="pt_tram_T1:0.8" depart="19571.0"/>
        <walk edges="-178315#1 -177642#1 -177642#0 -179357#1 -178729#2 -178722#3 -180748#6 -180748#5 -180748#4 -178195#4" arrivalPos="72.8611082227526"/>
        <stop lane="-178195#4_0" duration="28063.40031345032" actType="P-Work"/>
        <walk edges="-178195#4 -180748#4 -180748#5 -180748#6 -178722#3 -178729#2 -179357#1 -177642#0 -177642#1 -178315#1" busStop="-641485"/>
        <ride busStop="-644367" lines="T1:1" intended="pt_tram_T1:1.58" depart="49735.0"/>
        <walk edges="-177557#0 -177557#1 -178186" arrivalPos="54.49408422898833"/>
        <stop lane="-178186_0" duration="1.0" actType="Home"/>
    </person>
    <person id="-2081_-2036_3" type="pedestrian" depart="19385.04">
        <walk edges="-181508 -179261#5 -179261#4 -179261#3 -179261#2" busStop="-642135"/>
        <ride busStop="-629455" lines="L63:0" intended="pt_bus_L63:0.8" depart="19481.0"/>
        <walk edges="-180475 -180141#2 -180141#3 -180141#4 -178087" busStop="-631403"/>
        <ride busStop="-632608" lines="T2:1" intended="pt_tram_T2:1.9" depart="19993.0"/>
        <walk edges="-180217#11 -179564#4 -178320#8 --178320#9 --178320#12 --178320#13 -179133#3 -179133#2 -179133#1 --178028#5 --178028#6 --178028#7 -180843#2 -180843#1 -177532#0 -177532#1 -179517#1 -181659#3 -181659#2 -181659#1 -181659#0 -181457#7 -181457#6 -181457#5 -181457#4 -181457#3 -181457#2 -181457#1 -181457#0 -180423#1 -180423#0 -177922#2 -177922#1 -177922#0 -180280#4 -177481#13 -177481#12 -177481#11 -177481#10 -177481#9 -177481#5 -177481#1 -177481#0 -180596#1 -180596#0 -179233#0 -180772#3 -178820#1 -178820#2" arrivalPos="48.03042698113635"/>
        <stop lane="-178820#2_0" duration="27700.86460216068" actType="P-Work"/>
        <walk edges="-178820#2 -178820#1 -180772#3 -179233#0 -180596#0 -180596#1 -177481#0 -177481#1 -177481#5 -177481#9 -177481#10 -177481#11 -177481#12 -177481#13 -180280#4 -177922#0 -177922#1 -177922#2 -180423#0 -180423#1 -181457#0 -181457#1 -181457#2 -181457#3" busStop="-643641"/>
        <ride busStop="-637264" lines="L97B:1" intended="pt_bus_L97B:1.63" depart="52608.0"/>
        <walk edges="-180843#3 -178702#2 -178702#1 -178702#0 -181697#7 -181697#8 -181697#9 -179133#1 -179133#2 -179133#3 -179133#6 -179133#7 -179133#8 -179133#9 -179133#10 -179133#11 -179133#12 -179133#13 -180843#8 -180843#9 -180843#10 -180778#0 -180074#1 -180329#0 -180329#2 -178845#0 -178845#1 -178544#0 -178544#1 -181154#1 -181154#2" busStop="-649549"/>
        <ride busStop="-646730" lines="T2:0" intended="pt_tram_T2:0.65" depart="54095.0"/>
        <walk edges="-179247#2 -178225#0 -178225#1 -178225#2 -178225#3 -178225#4 -178225#6 -178225#7 -178225#8 -181478 --179804#2 --177454 --178689#1 -178689#2 --177401#3 --177401#2 --177401#1 --177401#0 --180008#8 --180008#7 --180008#6 --180008#4 --179710#1 --179710#2 --179805#1 --179805#0 -178310#2 --179559#3 -179559#2 -179559#1 -179559#0 -181508" arrivalPos="70.01068751651434"/>
        <stop lane="-181508_0" duration="1.0" actType="Home"/>
    </person>
    <person id="-2036_-2075_0" type="pedestrian" depart="19452.45">
        <walk edges="-181451#8 -181451#7 -181243#5 -181243#4 -181243#3 -181243#2 -179594#7 -179594#6 -179594#5 -179594#4 -179594#3 -179594#2 -179594#1 -178722#5 -179412#1 -179412#0 -180596#0 -180596#1 -177481#0 -177481#1 -177481#5 -177481#9 -177481#10 -177481#11 -177481#12 -177481#13 -180280#4 -177922#0 -177922#1 -177922#2 -180423#0 -180423#1 -181457#0 -181457#1 -181457#2 -181457#3" busStop="-643641"/>
        <ride busStop="-634109" lines="L13:1" intended="pt_bus_L13:1.11" depart="21806.0"/>
        <walk edges="-181659#2 -181659#3 -179517#1 -178285#0 -178285#1 -178285#2" busStop="-629960"/>
        <ride busStop="-646132" lines="BW2:1" intended="pt_bus_BW2:1.12" depart="22292.0"/>
        <walk edges="-178629#3 -178629#2 -179781#1 --177638#0" arrivalPos="30.51399544673136"/>
        <stop lane="--177638#0_0" duration="36247.43343549151" actType="P-Work"/>
        <walk edges="--177638#0 -177638#0 --179781#1 -178629#2 -178629#3" busStop="-649480"/>
        <ride busStop="-637416" lines="BW2:0" intended="pt_bus_BW2:0.74" depart="59282.0"/>
        <walk edges="-177624#2" busStop="-629960"/>
        <walk edges="-178285#2 -178285#1 -178285#0 -179517#1 -181659#3 -181659#2 -181659#1 -181659#0 -181457#7 -181457#6 -181457#5 -181457#4 -181457#3 -181457#2 -181457#1 -181457#0 -180423#1 -180423#0 -177922#2 -177922#1 -177922#0 -180280#4 -177481#13 -177481#12 -177481#11 -177481#10 -177481#9 -177481#5 -177481#1 -177481#0 -180596#1 -180596#0 -179412#0 -179412#1 -179412#2 -178753 -179594#0 -179594#1 -179594#2 -179594#3 -179594#4 -179594#5 -179594#6 -179594#7 -181243#2 -181243#3 -181243#4 -181243#5 -181451#7 -181451#8" arrivalPos="60.2340056611901"/>
        <stop lane="-181451#8_0" duration="1.0" actType="Home"/>
    </person>
    <person id="-2051_-2036_9" type="pedestrian" depart="19626.92">
        <walk edges="-178057#13 -178057#12 -178057#11 -180067#7 -179819#3 -179819#2 -179819#1 -179819#0 -180067#4 -177497#10 -177497#9" busStop="-645324"/>
        <walk edges="-177959#2" busStop="-629552"/>
        <ride busStop="-629960" lines="BW2:1" intended="pt_bus_BW2:1.9" depart="20358.0"/>
        <walk edges="-177624#2 -177624#3 -177387#0 -181497#1 -180244 -180285#0 -180285#1" busStop="-644063"/>
        <ride busStop="-637686" lines="L97B:0" intended="pt_bus_L97B:0.10" depart="20832.0"/>
        <walk edges="-180765#1 -180765#0 -179118#3 -179118#2 -179118#1 -180095#1 -178703#2 -178703#3 -178703#4 -178703#5 -178045#1 -178045#2 -178045#3 -178045#4 -178045#5 -178045#6 -178045#7 -178942#1 -178942#0 -179812#2 --179812#1 --179973 -179599#0 -181208#2" arrivalPos="22.26660261735215"/>
        <stop lane="-181208#2_0" duration="32348.10239359133" actType="P-Work"/>
        <walk edges="-181208#2 -181208#1 -181208#0 -177973#1 -177973#0 -181284 -179925#6 -179925#5 -180344#1 -180632#2 -180632#3 -180632#4 -180624#1 -180624#2 -180624#3 -180596#0 -180596#1 -177481#0 -177481#1 -177481#5 -177481#9 -177481#10 -177481#11 -177481#12 -177481#13 -180280#4 -177922#0 -177922#1 -177922#2 -180423#0 -180423#1 -181457#0 -181457#1 -181457#2 -181457#3" busStop="-643641"/>
        <ride busStop="-637264" lines="L97B:1" intended="pt_bus_L97B:1.70" depart="56808.0"/>
        <walk edges="-180843#3 -178702#2 -177414#4 -177493#7 -179639 -177493#2 -179391#0 -179391#1 -177796#10 -177796#1 -177796#2" busStop="-629552"/>
        <walk edges="-177959#3" busStop="-645324"/>
        <walk edges="-177497#9 -177497#10 -181571#14 -180256#4 -180092#2 -181571#12 -181571#11 -178057#11 -177356#0 -179813#0 -178057#13" arrivalPos="23.01450221198717"/>
        <stop lane="-178057#13_0" duration="1.0" actType="Home"/>
    </person>
    <person id="-2036_-2030_3" type="pedestrian" depart="19768.23">
        <walk edges="--180798 -178315#2 -178315#1 -180596#0 -180596#1 -177481#0 -177481#1 -177481#5 -177481#9 -177481#10 -177481#11 -177481#12 -177481#13 -180280#4 -177922#0 -177922#1 -177922#2 -180423#0 -180423#1 -181457#0 -181457#1 -181457#2 -181457#3 -181457#4 -181457#5 -181457#6 -181457#7 -181659#0 -181659#1 -181659#2 -181659#3 -179517#1 -177532#1 -177532#0 -180843#1 -180843#2 --178028#7 --178028#6 --178028#5 -179133#1 -179133#2 -179133#3 -179133#6 -179133#7 -179133#8 -179133#9 -179133#10 -179133#11 -179133#12 -179133#13 -180843#8 -180843#9 -180843#10 -180778#0 -180074#1 -180329#0 -180329#2 -178845#0 -178845#1 -178544#0 -178544#1 -181154#1 -181154#2" busStop="-649549"/>
        <walk edges="-180141#5 -178287#1 -181156#1 -178009#0 -178009#1 -178009#2 -178009#4 -178009#5 -178009#6 -178009#7 -178009#8 -178009#10 -178009#11 -178009#12 -178009#13 -178009#14 -178009#15 -178009#17 -178009#18 -178009#19 -178402#0 -178402#1 -178402#2 -178402#3 -178402#4 -178402#5 -178402#6 -178402#7 -178402#8 -178402#9 -178402#10 -178402#11 -178494 -181602#0 -181602#1 -181477#2 -179124 -180833#0 -180833#1 -179007#12 -179007#13 -179492#0 -179492#1 -177360#0 -177360#1 -181030" busStop="-636312"/>
        <walk edges="-181293#3 -181293#4 -178517#1" arrivalPos="128.16214833647513"/>
        <stop lane="-178517#1_0" duration="27403.174238361673" actType="P-Work"/>
        <walk edges="-178517#1 -181293#4 -181293#3" busStop="-630637"/>
        <walk edges="-181030 -177360#1 -177360#0 -179492#1 -179492#0 -179007#13 -179007#12 -180833#1 -180833#0 -179124 -181477#2 -181602#1 -181602#0 -178494 -178402#11 -178402#10 -178402#9 -178402#8 -178402#7 -178402#6 -178402#5 -178402#4 -178402#3 -178402#2 -178402#1 -178402#0 -178009#19 -178009#18 -178009#17 -178009#15 -178009#14 -178009#13 -178009#12 -178009#11 -178009#10 -178009#8 -178009#7 -178009#6 -178009#5 -178009#4 -178009#2 -178009#1 -178009#0 -181156#1 -178287#1 -180141#5" busStop="-649549"/>
        <walk edges="-181154#2 -181154#1 -178544#1 -178544#0 -178845#1 -181095#0 -179969 -180001#4 -180329#0 -180074#1 -180778#0 -180843#10 --177372 -180843#8 -179133#13 -179133#12 -181396#1 -179656#1 -180246#1 -180403#0 -179133#8 -179133#7 -179133#6 -179133#3 -179133#2 -179133#1 --178028#5 --178028#6 --178028#7 -180843#2 -180843#1 -177532#0 -177532#1 -179517#1 -181659#3 -181659#2 -181659#1 -181659#0 -181457#7 -181457#6 -181457#5 -181457#4 -181457#3 -181457#2 -181457#1 -181457#0 -180423#1 -180423#0 -177922#2 -177922#1 -177922#0 -180280#4 -177481#13 -177481#12 -177481#11 -177481#10 -177481#9 -177481#5 -177481#1 -177481#0 -180596#1 -180596#0 -180624#3 --179765#1 --179765#2 --180798" arrivalPos="183.52302523888721"/>
        <stop lane="--180798_0" duration="1.0" actType="Home"/>
    </person>
    <person id="-2036_-2036_37" type="pedestrian" depart="19806.96">
        <walk edges="-178195#4 -180748#4 -180748#5 -180748#6 -178722#3 -178729#2 -179357#1 -177642#0 -177642#1 -178315#1" busStop="-641485"/>
        <ride busStop="-644367" lines="T1:1" intended="pt_tram_T1:1.10" depart="20935.0"/>
        <walk edges="-177557#0 --179833" arrivalPos="41.164601564299886"/>
        <stop lane="--179833_0" duration="25524.524096515237" actType="P-Work"/>
        <walk edges="--179833 -177557#0" busStop="-645143"/>
        <ride busStop="-639363" lines="T1:0" intended="pt_tram_T1:0.54" depart="47171.0"/>
        <walk edges="-178315#1 -177642#1 -177642#0 -179357#1 -178729#2 -178722#3 -180748#6 -180748#5 -180748#4 -178195#4" arrivalPos="15.486736513776878"/>
        <stop lane="-178195#4_0" duration="1.0" actType="Home"/>
    </person>
    <person id="-2075_-2036_5" type="pedestrian" depart="19909.4">
        <walk edges="-178046#4 -178046#3 -178046#2 -181374#0 -181374#1 -181021#0 -181021#1 -181021#2 -177782#2 -179462#0 -179796#0 --177495#0 --177495#1 -178232#0 -178232#1 -178232#2 -178232#3 -178232#4 -178232#5 -178629#3" busStop="-649480"/>
        <ride busStop="-637416" lines="BW2:0" intended="pt_bus_BW2:0.10" depart="20882.0"/>
        <walk edges="-177624#2" busStop="-629960"/>
        <walk edges="-178285#2 -178285#1 -178285#0 -179517#1 -181659#3 -181659#2 -181659#1 -181659#0 -181457#7 -181457#6 -181457#5 -181457#4 -181457#3 -181457#2 -181457#1 -181457#0 -180423#1 -180423#0 -177922#2 -177922#1 -177922#0 -180280#4 -177481#13 -177481#12 -177481#11 -177481#10 -177481#9 -177481#5 -177481#1 -177481#0 -180596#1 -180596#0 -179412#0 -179412#1 -179412#2 -178753 -179594#0 -179594#1 -179594#2 -179594#3 -179594#4 -179594#5 -179594#6 -179594#7 -181243#2 -181243#3 -181243#4 -181243#5 -181451#7 -181451#8" arrivalPos="90.444262583933"/>
        <stop lane="-181451#8_0" duration="27880.884278317582" actType="P-Work"/>
        <walk edges="-181451#8 -181451#7 -181243#5 -181243#4 -181243#3 -181243#2 -179594#7 -179594#6 -179594#5 -179594#4 -179594#3 -179594#2 -179594#1 -178722#5 -179412#1 -179412#0 -180596#0 -180596#1 -177481#0 -177481#1 -177481#5 -177481#9 -177481#10 -177481#11 -177481#12 -177481#13 -180280#4 -177922#0 -177922#1 -177922#2 -180423#0 -180423#1 -181457#0 -181457#1 -181457#2 -181457#3" busStop="-643641"/>
        <ride busStop="-634109" lines="L13:1" intended="pt_bus_L13:1.65" depart="54206.0"/>
        <walk edges="-181659#2 -181659#3 -179517#1 -178285#0 -178285#1 -178285#2" busStop="-629960"/>
        <ride busStop="-646132" lines="BW2:1" intended="pt_bus_BW2:1.66" depart="54692.0"/>
        <walk edges="-178629#3 -178232#5 -178232#4 -178232#3 -178232#2 -178232#1 -178232#0 --177495#1 --177495#0 --179796#0 -179462#0 -177782#2 -181021#2 -181021#1 -181021#0 -181374#1 -177573#2 -177573#1 -178323#0 -178046#4" arrivalPos="70.1703829575974"/>
        <stop lane="-178046#4_0" duration="1.0" actType="Home"/>
    </person>
    <person id="-2036_-2089_4" type="pedestrian" depart="19958.59">
        <walk edges="--181272 --179770#4 -180005#3" busStop="-645143"/>
        <ride busStop="-639363" lines="T1:0" intended="pt_tram_T1:0.9" depart="20171.0"/>
        <walk edges="-179349#4 -179349#3 -179349#2 -179349#1 -179349#0 -178979#1 -178979#0 -178045#7 -178045#6 -178045#5 -178045#4 -178045#3 -178045#2 -178045#1 -178703#5 -178703#4 -178703#3 -178703#2 -180095#1 -179118#1 -179118#2 -179118#3 -180765#0 -180765#1 -180765#2 -180779#0 -177899#1 -177899#0 --181334#0 --178669" arrivalPos="75.49535804447514"/>
        <stop lane="--178669_0" duration="29597.111791153453" actType="P-Work"/>
        <walk edges="--178669 --181334#0 -177899#0 --177899#1 --180779#0 -180765#2 -180765#1 -180765#0 -179118#3 -179118#2 -179118#1 -180129#0 -178703#2 -178703#3 -178703#4 -178703#5 -178045#1 -178045#2 -178045#3 -178045#4 -178045#5 -178045#6 -178045#7 -178979#0 -178979#1 -179349#0 -179349#1 -179349#2 -179349#3 -179349#4" busStop="-641485"/>
        <ride busStop="-644367" lines="T1:1" intended="pt_tram_T1:1.66" depart="54535.0"/>
        <walk edges="-180005#3 -179770#4 --181272" arrivalPos="51.30335801512324"/>
        <stop lane="--181272_0" duration="1.0" actType="Home"/>
    </person>
    <person id="-2030_-2075_0" type="pedestrian" depart="19973.39">
        <walk edges="--181386#0 --181118#3 --181118#2 --181118#1 -178157#1 -178157#2 -179034#1 -178623#0 -177624#1 -177624#2" busStop="-629960"/>
        <walk edges="-178285#2 -178285#1 -178285#0 -177532#1 -177532#0 -180843#1 -180843#2 --178028#7 --178028#6 --178028#5 -179133#1 -179133#2 -179133#3 -179133#6 -179133#7 -179133#8 -179133#9 -179133#10 -179133#11 -179133#12 -179133#13 -180843#8 -180843#9 -180843#10 -180778#0 -180074#1 -180329#0 -180329#2 -178845#0 -178845#1 -178544#0 -178544#1 -181154#1 -181154#2" busStop="-649549"/>