<?xml version="1.0" encoding="UTF-8"?>

<!-- generated on 2025-08-28 01:40:58.055613 by scenarioFromOSM.py UNKNOWN
<configuration>
    <parking-areas value="osm_taxi_stands.add.xml"/>
    <sumo-net value="osm.net.xml"/>
    <max-distance-alternatives value="5000.0"/>
    <min-capacity-visibility-true value="50"/>
    <max-distance-visibility-true value="1000.0"/>
    <processes value="4"/>
    <output value="osm_taxi_rerouters.add.xml"/>
    <tqdm value="True"/>
</configuration>
-->

<additional xmlns:xsi="http://www.w3.org/2001/XMLSchema-instance" xsi:noNamespaceSchemaLocation="http://sumo.dlr.de/xsd/additional_file.xsd">

    <rerouter id="-628980" edges="--179071#3">
        <interval begin="0.0" end="86400.0">
            <!-- in order of distance --> 
            <parkingAreaReroute id="-628980" visible="true"/> <!-- dist: 0.0 -->
            <parkingAreaReroute id="-644975" visible="true"/> <!-- dist: 753.2 -->
            <parkingAreaReroute id="-647102" visible="false"/> <!-- dist: 1696.8 -->
            <parkingAreaReroute id="-648992" visible="false"/> <!-- dist: 2294.0 -->
            <parkingAreaReroute id="-643587" visible="false"/> <!-- dist: 2489.3 -->
            <parkingAreaReroute id="-644560" visible="false"/> <!-- dist: 3188.4 -->
            <parkingAreaReroute id="-633233" visible="false"/> <!-- dist: 4472.6 -->
            <parkingAreaReroute id="-649350" visible="false"/> <!-- dist: 4642.2 -->
        </interval>
    </rerouter>

    <rerouter id="-633233" edges="-179233#0">
        <interval begin="0.0" end="86400.0">
            <!-- in order of distance --> 
            <parkingAreaReroute id="-633233" visible="true"/> <!-- dist: 0.0 -->
            <parkingAreaReroute id="-649350" visible="true"/> <!-- dist: 159.6 -->
            <parkingAreaReroute id="-644560" visible="false"/> <!-- dist: 3053.2 -->
            <parkingAreaReroute id="-648992" visible="false"/> <!-- dist: 3430.1 -->
            <parkingAreaReroute id="-644975" visible="false"/> <!-- dist: 3953.0 -->
            <parkingAreaReroute id="-643587" visible="false"/> <!-- dist: 4117.7 -->
            <parkingAreaReroute id="-628980" visible="false"/> <!-- dist: 4227.4 -->
            <parkingAreaReroute id="-647102" visible="false"/> <!-- dist: 4476.7 -->
        </interval>
    </rerouter>

    <rerouter id="-643587" edges="-178471">
        <interval begin="0.0" end="86400.0">
            <!-- in order of distance --> 
            <parkingAreaReroute id="-643587" visible="true"/> <!-- dist: 0.0 -->
            <parkingAreaReroute id="-648992" visible="false"/> <!-- dist: 1011.8 -->
            <parkingAreaReroute id="-644560" visible="false"/> <!-- dist: 1299.6 -->
            <parkingAreaReroute id="-644975" visible="false"/> <!-- dist: 2380.6 -->
            <parkingAreaReroute id="-628980" visible="false"/> <!-- dist: 2654.9 -->
            <parkingAreaReroute id="-647102" visible="false"/> <!-- dist: 3613.7 -->
            <parkingAreaReroute id="-633233" visible="false"/> <!-- dist: 4061.2 -->
            <parkingAreaReroute id="-649350" visible="false"/> <!-- dist: 4230.9 -->
        </interval>
    </rerouter>

    <rerouter id="-644560" edges="--180418#1">
        <interval begin="0.0" end="86400.0">
            <!-- in order of distance --> 
            <parkingAreaReroute id="-644560" visible="true"/> <!-- dist: 0.0 -->
            <parkingAreaReroute id="-648992" visible="false"/> <!-- dist: 1211.0 -->
            <parkingAreaReroute id="-643587" visible="false"/> <!-- dist: 1450.0 -->
            <parkingAreaReroute id="-633233" visible="false"/> <!-- dist: 2764.5 -->
            <parkingAreaReroute id="-644975" visible="false"/> <!-- dist: 2933.4 -->
            <parkingAreaReroute id="-649350" visible="false"/> <!-- dist: 2934.1 -->
            <parkingAreaReroute id="-628980" visible="false"/> <!-- dist: 3207.7 -->
            <parkingAreaReroute id="-647102" visible="false"/> <!-- dist: 4113.7 -->
        </interval>
    </rerouter>

    <rerouter id="-644975" edges="-178402#0">
        <interval begin="0.0" end="86400.0">
            <!-- in order of distance --> 
            <parkingAreaReroute id="-644975" visible="true"/> <!-- dist: 0.0 -->
            <parkingAreaReroute id="-628980" visible="true"/> <!-- dist: 592.7 -->
            <parkingAreaReroute id="-647102" visible="false"/> <!-- dist: 1606.4 -->
            <parkingAreaReroute id="-648992" visible="false"/> <!-- dist: 1978.5 -->
            <parkingAreaReroute id="-643587" visible="false"/> <!-- dist: 2173.8 -->
            <parkingAreaReroute id="-644560" visible="false"/> <!-- dist: 2872.9 -->
            <parkingAreaReroute id="-633233" visible="false"/> <!-- dist: 4152.3 -->
            <parkingAreaReroute id="-649350" visible="false"/> <!-- dist: 4322.0 -->
        </interval>
    </rerouter>

    <rerouter id="-648992" edges="-179094#1">
        <interval begin="0.0" end="86400.0">
            <!-- in order of distance --> 
            <parkingAreaReroute id="-648992" visible="true"/> <!-- dist: 0.0 -->
            <parkingAreaReroute id="-643587" visible="true"/> <!-- dist: 857.6 -->
            <parkingAreaReroute id="-644975" visible="false"/> <!-- dist: 1823.9 -->
            <parkingAreaReroute id="-644560" visible="false"/> <!-- dist: 1842.3 -->
            <parkingAreaReroute id="-628980" visible="false"/> <!-- dist: 2098.2 -->
            <parkingAreaReroute id="-647102" visible="false"/> <!-- dist: 3057.0 -->
            <parkingAreaReroute id="-633233" visible="false"/> <!-- dist: 3714.5 -->
            <parkingAreaReroute id="-649350" visible="false"/> <!-- dist: 3884.1 -->
        </interval>
    </rerouter>

    <rerouter id="-649350" edges="-179199#1">
        <interval begin="0.0" end="86400.0">
            <!-- in order of distance --> 
            <parkingAreaReroute id="-649350" visible="true"/> <!-- dist: 0.0 -->
            <parkingAreaReroute id="-633233" visible="true"/> <!-- dist: 700.3 -->
            <parkingAreaReroute id="-644560" visible="false"/> <!-- dist: 2883.6 -->
            <parkingAreaReroute id="-648992" visible="false"/> <!-- dist: 3260.5 -->
            <parkingAreaReroute id="-644975" visible="false"/> <!-- dist: 3783.4 -->
            <parkingAreaReroute id="-643587" visible="false"/> <!-- dist: 3948.0 -->
            <parkingAreaReroute id="-628980" visible="false"/> <!-- dist: 4057.7 -->
            <parkingAreaReroute id="-647102" visible="false"/> <!-- dist: 4307.1 -->
        </interval>
    </rerouter>
</additional>
