<?xml version="1.0" encoding="UTF-8"?>

<!-- generated on 2025-08-28 01:40:23 by Eclipse SUMO polyconvert Version c915cd253
<polyconvertConfiguration xmlns:xsi="http://www.w3.org/2001/XMLSchema-instance" xsi:noNamespaceSchemaLocation="http://sumo.dlr.de/xsd/polyconvertConfiguration.xsd">

    <input>
        <net-file value="osm.net.xml"/>
        <osm-files value="H2ST9_cp.osm"/>
    </input>

    <output>
        <output-file value="osm_polygons.add.xml"/>
    </output>

</polyconvertConfiguration>
-->

<additional xmlns:xsi="http://www.w3.org/2001/XMLSchema-instance" xsi:noNamespaceSchemaLocation="http://sumo.dlr.de/xsd/additional_file.xsd">
    <location netOffset="-602342.67,-3723749.02" convBoundary="-36.29,-6.12,4120.48,4237.67" origBoundary="-7.896518,33.648527,-7.851735,33.686747" projParameter="+proj=utm +zone=29 +ellps=WGS84 +datum=WGS84 +units=m +no_defs"/>

    <poly id="-177305" type="building" color="255,230,230" fill="1" layer="-1.00" shape="2931.124224,2062.580882 2936.457196,2070.901658 2965.410300,2050.254314 2959.430677,2042.557705 2931.124224,2062.580882"/>
    <poly id="-177307" type="building" color="255,230,230" fill="1" layer="-1.00" shape="927.529127,3658.189979 933.009318,3647.771907 977.786054,3671.114257 972.305825,3681.532305 927.529127,3658.189979"/>
    <poly id="-177309" type="building" color="255,230,230" fill="1" layer="-1.00" shape="1113.129085,2577.876576 1108.832297,2591.973244 1070.913460,2580.510711 1071.336201,2579.141946 1059.229432,2575.489325 1063.112802,2562.750428 1113.129085,2577.876576"/>
    <poly id="-177312" type="building" color="255,230,230" fill="1" layer="-1.00" shape="898.241630,592.541324 910.984664,598.493065 914.609998,590.812704 901.857802,584.849785 898.241630,592.541324"/>
    <poly id="-177314" type="building" color="255,230,230" fill="1" layer="-1.00" shape="2213.493003,377.717274 2203.815565,383.237954 2202.113644,380.273376 2199.136723,381.968648 2191.564100,368.817274 2204.209197,361.601208 2213.493003,377.717274"/>
    <poly id="-177315" type="building" color="255,230,230" fill="1" layer="-1.00" shape="2916.832821,727.253043 2927.486282,710.557762 2937.129094,716.644325 2926.475501,733.350671 2916.832821,727.253043"/>
    <poly id="-177317" type="building" color="255,230,230" fill="1" layer="-1.00" shape="1798.509320,2959.957564 1806.823621,2955.905821 1801.825405,2945.750826 1793.520248,2949.813749 1798.509320,2959.957564"/>
    <poly id="-177319" type="building" color="255,230,230" fill="1" layer="-1.00" shape="3301.795919,2468.374022 3297.218749,2467.238163 3293.108923,2464.922400 3289.779943,2461.585245 3287.488590,2457.484259 3286.389296,2452.909105 3286.570865,2448.215170 3288.010972,2443.745544 3290.622637,2439.820453 3294.189208,2436.747617 3298.467076,2434.756934 3303.121017,2433.977611 3307.816539,2434.472407 3312.192315,2436.215193 3315.943866,2439.069703 3318.776717,2442.833334 3320.490204,2447.204837 3320.948562,2451.883677 3320.128011,2456.504113 3318.087841,2460.734532 3314.970541,2464.266403 3311.020208,2466.825533 3306.517050,2468.226734 3301.795919,2468.374022"/>
    <poly id="-177320" type="building" color="255,230,230" fill="1" layer="-1.00" shape="1393.674792,2804.254138 1429.468850,2803.766929 1429.647395,2816.383573 1393.844114,2816.870679 1393.674792,2804.254138"/>
    <poly id="-177322" type="building" color="255,230,230" fill="1" layer="-1.00" shape="2317.541229,363.923262 2327.735641,363.724463 2327.873348,370.647999 2331.602300,370.577964 2331.800327,380.470327 2317.876983,380.739164 2317.541229,363.923262"/>
    <poly id="-177323" type="building" color="255,230,230" fill="1" layer="-1.00" shape="2409.207743,936.607364 2404.015724,922.075246 2383.832680,929.208662 2387.486090,939.426753 2391.843020,937.879526 2393.390805,942.204718 2409.207743,936.607364"/>
    <poly id="-177324" type="building" color="255,230,230" fill="1" layer="-1.00" shape="1311.150242,2876.811737 1326.682718,2876.581136 1326.820869,2885.232397 1327.683269,2885.219582 1328.002806,2905.379993 1311.598588,2905.634379 1311.150242,2876.811737"/>
    <poly id="-177326" type="university" color="237,199,199" fill="1" layer="-2.00" shape="2416.047031,2588.304911 2397.055071,2542.788228 2451.680195,2522.951764 2466.114859,2570.578379 2416.047031,2588.304911"/>
    <poly id="-177328" type="building" color="255,230,230" fill="1" layer="-1.00" shape="1554.848293,2646.661407 1560.656687,2649.692581 1565.522651,2640.453228 1559.714253,2637.422051 1554.848293,2646.661407"/>
    <poly id="-177330" type="building" color="255,230,230" fill="1" layer="-1.00" shape="701.588239,3924.463189 699.243912,3923.496565 697.225979,3928.381177 689.749731,3925.321482 700.438755,3899.476163 710.259351,3903.502493 701.588239,3924.463189"/>
    <poly id="-177334" type="leisure" color="207,245,201" fill="1" layer="-2.00" shape="2912.581858,2707.912405 2941.108274,2696.386409 2963.818943,2748.324548 2912.581858,2707.912405"/>
    <poly id="-177335" type="building" color="255,230,230" fill="1" layer="-1.00" shape="2630.012449,965.282691 2649.940999,979.699487 2641.712453,990.972581 2621.783915,976.555802 2630.012449,965.282691"/>
    <poly id="-177336" type="building" color="255,230,230" fill="1" layer="-1.00" shape="467.068296,1493.868416 473.907636,1475.235792 506.375162,1487.058119 499.526612,1505.679543 467.068296,1493.868416"/>
    <poly id="-177337" type="building" color="255,230,230" fill="1" layer="-1.00" shape="2892.275534,2098.602894 2897.608517,2106.923650 2926.570700,2086.276295 2920.591071,2078.579709 2892.275534,2098.602894"/>
    <poly id="-177338" type="building" color="255,230,230" fill="1" layer="-1.00" shape="2505.109133,3033.376503 2482.928614,2992.144040 2552.471032,2956.921784 2569.710043,2989.649832 2505.109133,3033.376503"/>
    <poly id="-177339" type="building" color="255,230,230" fill="1" layer="-1.00" shape="1466.856442,3964.814959 1480.976324,3970.727203 1475.305572,3984.144312 1460.124399,3977.788635 1462.398517,3972.397484 1463.459825,3972.840926 1466.856442,3964.814959"/>
    <poly id="-177340" type="building" color="255,230,230" fill="1" layer="-1.00" shape="3733.540858,1669.629660 3725.296004,1661.364797 3715.460940,1671.101897 3723.705916,1679.355680 3733.540858,1669.629660"/>
    <poly id="-177348" type="building" color="255,230,230" fill="1" layer="-1.00" shape="946.698080,2466.978436 958.697194,2471.172434 955.684422,2479.712171 943.685318,2475.518176 946.698080,2466.978436"/>
    <poly id="-177350" type="building" color="255,230,230" fill="1" layer="-1.00" shape="1790.230014,599.986217 1789.497060,617.942287 1779.059322,617.518792 1779.801528,599.562823 1790.230014,599.986217"/>
    <poly id="-177353" type="building" color="255,230,230" fill="1" layer="-1.00" shape="761.440038,3948.487355 771.245113,3930.706436 785.364536,3938.422897 783.151936,3942.441528 782.866251,3942.283399 777.703604,3951.652822 778.367191,3952.014375 775.937224,3956.418300 761.440038,3948.487355"/>
    <poly id="-177354" type="building" color="255,230,230" fill="1" layer="-1.00" shape="2594.783609,729.691354 2601.156837,727.800807 2604.896883,740.257137 2594.541394,743.344512 2593.861406,741.077711 2586.688075,743.203157 2583.869873,733.791552 2580.222751,734.870229 2566.399273,688.778703 2576.866325,685.670368 2578.772193,692.015209 2583.098540,690.733536 2594.783609,729.691354"/>
    <poly id="-177363" type="building" color="255,230,230" fill="1" layer="-1.00" shape="2860.502733,627.654822 2856.361014,634.077329 2887.912207,654.215187 2892.044666,647.792592 2860.502733,627.654822"/>
    <poly id="-177365" type="building" color="255,230,230" fill="1" layer="-1.00" shape="2689.099640,2755.497434 2669.502027,2762.835910 2663.978620,2748.222411 2683.948543,2740.755101 2689.099640,2755.497434"/>
    <poly id="-177366" type="building" color="255,230,230" fill="1" layer="-1.00" shape="1248.348903,4015.365875 1256.324440,3997.964338 1262.108708,4000.585315 1261.026226,4002.954781 1269.624130,4006.857714 1263.917776,4019.311005 1277.783222,4025.607830 1271.089357,4040.221181 1255.369643,4033.084730 1250.793102,4043.080470 1236.198856,4036.454618 1240.860966,4026.260441 1241.073204,4026.351341 1243.427976,4021.204672 1259.055503,4028.295800 1262.122268,4021.606303 1248.348903,4015.365875"/>
    <poly id="-177367" type="building" color="255,230,230" fill="1" layer="-1.00" shape="2453.191406,884.945831 2456.945668,873.213873 2456.381982,873.030505 2459.118612,864.466022 2460.135199,864.787245 2462.583850,857.116712 2477.204058,861.750999 2470.972203,881.252845 2468.366077,880.426927 2465.658349,888.892047 2453.191406,884.945831"/>
    <poly id="-177368" type="leisure" color="207,245,201" fill="1" layer="-2.00" shape="3292.609528,2632.121049 3300.175558,2627.907266 3311.387973,2647.844692 3303.812683,2652.058363 3292.609528,2632.121049"/>
    <poly id="-177369" type="building" color="255,230,230" fill="1" layer="-1.00" shape="1420.830227,2838.615752 1406.858532,2839.405797 1395.215555,2840.054953 1394.358548,2825.016559 1420.511314,2823.549958 1424.192407,2825.240050 1424.449627,2829.739388 1426.509576,2825.309455 1455.026021,2838.443588 1460.067036,2827.578018 1472.014243,2833.079004 1466.489375,2844.958243 1459.744744,2845.339231 1463.924032,2847.256244 1459.633279,2856.479727 1420.830227,2838.615752"/>
    <poly id="-177381" type="building" color="255,230,230" fill="1" layer="-1.00" shape="1085.305068,3995.063185 1091.544360,3998.475313 1093.643693,3994.654880 1087.404280,3991.253824 1085.305068,3995.063185"/>
    <poly id="-177384" type="building" color="255,230,230" fill="1" layer="-1.00" shape="2235.806459,96.317091 2244.998668,92.795763 2269.551216,156.236866 2274.813172,154.223214 2287.567366,187.178372 2284.326404,188.416655 2285.580446,191.631088 2274.358063,195.927641 2235.806459,96.317091"/>
    <poly id="-177385" type="building" color="255,230,230" fill="1" layer="-1.00" shape="1500.003936,2773.354550 1506.125428,2776.577363 1508.917422,2771.335814 1502.795927,2768.112997 1500.003936,2773.354550"/>
    <poly id="-177389" type="building" color="255,230,230" fill="1" layer="-1.00" shape="1253.771725,1496.825821 1260.215479,1499.487090 1262.795327,1493.301782 1256.351569,1490.640511 1253.771725,1496.825821"/>
    <poly id="-177390" type="building" color="255,230,230" fill="1" layer="-1.00" shape="610.283226,3305.261750 620.051708,3284.877606 632.670258,3290.872079 627.074787,3302.540576 659.644863,3318.019594 661.389988,3314.372464 673.270559,3320.015721 664.687437,3337.931712 621.251438,3317.296613 623.916346,3311.743352 610.283226,3305.261750"/>
    <poly id="-177394" type="building" color="255,230,230" fill="1" layer="-1.00" shape="1613.877606,2592.412902 1626.171087,2599.346536 1630.311040,2592.081802 1618.017672,2585.137090 1613.877606,2592.412902"/>
    <poly id="-177397" type="building" color="255,230,230" fill="1" layer="-1.00" shape="660.597437,1945.577907 649.173542,1942.143610 647.856812,1946.459862 641.562609,1944.564795 647.157257,1926.140413 651.399638,1927.415365 654.206542,1918.175592 661.166162,1920.277173 658.426652,1929.285090 655.228731,1928.320395 654.190630,1931.731473 663.923100,1934.660283 660.597437,1945.577907"/>
    <poly id="-177400" type="building" color="255,230,230" fill="1" layer="-1.00" shape="1378.899379,948.637713 1387.561948,952.818223 1396.540430,950.944012 1398.558288,947.864791 1396.296829,939.179487 1386.266007,934.607605 1378.899379,948.637713"/>
    <poly id="-177402" type="building" color="255,230,230" fill="1" layer="-1.00" shape="2563.226474,409.248548 2548.670557,400.373031 2536.188516,420.637094 2529.398814,416.498190 2524.130376,425.046033 2518.188212,421.425869 2498.511543,453.384283 2515.416628,463.691983 2528.266880,442.822783 2533.057423,445.743686 2536.258133,440.551181 2541.850088,443.968170 2563.226474,409.248548"/>
    <poly id="-177409" type="building" color="255,230,230" fill="1" layer="-1.00" shape="1342.451347,3706.565169 1348.372700,3693.117474 1370.379710,3702.714409 1369.638558,3704.378747 1391.857647,3714.077709 1386.668127,3725.860940 1342.451347,3706.565169"/>
    <poly id="-177413" type="school" color="237,199,199" fill="1" layer="-2.00" shape="2203.156343,2946.534789 2253.184306,2971.302654 2267.625908,2940.216997 2292.480824,2988.798906 2331.300556,2955.742494 2263.815839,2879.892604 2253.904242,2905.379340 2228.976273,2894.020783 2203.156343,2946.534789"/>
    <poly id="-177415" type="parking" color="184,184,179" fill="1" layer="-1.00" shape="1989.608048,1210.709492 1837.451275,1255.245692 1815.491313,1223.273830 1976.800159,1156.867447 2002.657942,1207.659468 1989.608048,1210.709492"/>
    <poly id="-177416" type="building" color="255,230,230" fill="1" layer="-1.00" shape="722.360336,607.516089 737.178074,580.087121 813.645719,620.990883 808.015479,631.429580 770.939002,611.593688 769.065359,615.073293 765.662904,613.253587 767.848859,609.190355 752.044499,600.736113 752.148643,600.537879 743.794589,596.073330 739.630982,603.803338 769.128147,619.581575 768.711690,620.363431 772.980893,622.646548 775.176122,618.583417 779.638860,620.979368 777.964231,624.062409 787.092744,628.945102 785.313970,632.226373 789.583164,634.509495 793.443757,627.363234 805.283062,633.703815 799.965272,643.547817 801.910847,644.587669 799.611586,648.837953 722.360336,607.516089"/>
    <poly id="-177418" type="building" color="255,230,230" fill="1" layer="-1.00" shape="1272.346713,1426.388864 1280.146662,1429.696098 1283.428830,1422.023233 1275.628877,1418.715996 1272.346713,1426.388864"/>
    <poly id="-177422" type="building" color="255,230,230" fill="1" layer="-1.00" shape="936.162406,2612.559446 953.225313,2621.769745 957.699365,2613.566950 940.636567,2604.345567 936.162406,2612.559446"/>
    <poly id="-177423" type="commercial" color="209,209,204" fill="1" layer="-3.00" shape="2233.790847,2705.261923 2288.826326,2584.079141 2309.749257,2571.704034 2311.858264,2570.464495 2654.404326,2448.464199 2709.117034,2605.901361 2714.276352,2620.743470 2825.556437,2940.944527 2813.925176,2970.077783 2775.107577,2997.716496 2685.031953,2938.738008 2388.920763,2816.092768 2219.390964,2738.452394 2233.790847,2705.261923"/>
    <poly id="-177425" type="leisure" color="207,245,201" fill="1" layer="-2.00" shape="3561.227259,2259.766276 3474.282934,2304.889960 3538.401271,2423.129829 3698.832247,2335.348646 3661.833971,2206.143701 3586.209765,2232.103718 3561.227259,2259.766276"/>
    <poly id="-177425#1" type="sport" color="79,230,125" fill="1" layer="-2.00" shape="3561.227259,2259.766276 3474.282934,2304.889960 3538.401271,2423.129829 3698.832247,2335.348646 3661.833971,2206.143701 3586.209765,2232.103718 3561.227259,2259.766276"/>
    <poly id="-177426" type="building" color="255,230,230" fill="1" layer="-1.00" shape="3813.867223,1175.352320 3834.381936,1193.588067 3853.316503,1171.979470 3831.798162,1153.931919 3813.867223,1175.352320"/>
    <poly id="-177427" type="landuse" color="194,194,130" fill="1" layer="-3.00" shape="1932.395932,1377.529962 1925.126080,1376.653438 1928.973261,1390.395388 1934.812671,1393.194515 1932.910887,1385.598349 1932.139289,1382.367054 1931.961694,1379.939641 1932.395932,1377.529962"/>
    <poly id="-177429" type="building" color="255,230,230" fill="1" layer="-1.00" shape="3214.231982,2634.801117 3243.308947,2618.807637 3252.413387,2634.845387 3244.275639,2639.617748 3264.631324,2675.438243 3250.076851,2683.628581 3229.530107,2647.473751 3223.272046,2650.793827 3214.231982,2634.801117"/>
    <poly id="-177430" type="building" color="255,230,230" fill="1" layer="-1.00" shape="996.961951,2337.165121 1002.516930,2320.745108 1015.072472,2324.945173 1012.160755,2333.563511 1012.382543,2333.632356 1009.748414,2341.445198 996.961951,2337.165121"/>
    <poly id="-177435" type="building" color="255,230,230" fill="1" layer="-1.00" shape="2043.186940,205.380042 2040.659328,206.692626 2035.099670,196.022010 2040.164052,193.408018 2043.507361,199.801610 2048.179981,197.393788 2052.522226,205.736427 2045.312723,209.456729 2043.186940,205.380042"/>
    <poly id="-177436" type="building" color="255,230,230" fill="1" layer="-1.00" shape="2467.107207,2696.814321 2446.753058,2656.355095 2464.495813,2649.062321 2477.026901,2671.505077 2495.927832,2665.133208 2503.090765,2683.308637 2467.107207,2696.814321"/>
    <poly id="-177437" type="building" color="255,230,230" fill="1" layer="-1.00" shape="877.423987,2430.248330 860.974878,2425.131551 858.862848,2431.831456 851.913510,2429.674449 858.423394,2408.934238 874.327215,2413.890083 874.471172,2413.437549 881.974867,2415.777749 877.423987,2430.248330"/>
    <poly id="-177442" type="building" color="255,230,230" fill="1" layer="-1.00" shape="1615.399969,3571.947702 1622.183741,3556.815007 1638.228568,3563.944492 1634.133682,3573.070348 1633.718462,3572.888637 1631.020284,3578.895361 1615.399969,3571.947702"/>
    <poly id="-177443" type="building" color="255,230,230" fill="1" layer="-1.00" shape="3718.694841,2711.543713 3712.931454,2701.157679 3705.954005,2704.956794 3702.402205,2698.316567 3693.335724,2703.211176 3701.690294,2718.233226 3704.841813,2719.154146 3718.694841,2711.543713"/>
    <poly id="-177445" type="building" color="255,230,230" fill="1" layer="-1.00" shape="2275.873873,222.746287 2265.962090,229.327574 2255.476663,213.685663 2265.388455,207.104364 2275.873873,222.746287"/>
    <poly id="-177447" type="building" color="255,230,230" fill="1" layer="-1.00" shape="562.625738,3729.185350 567.259119,3731.959654 571.128967,3725.555463 566.495584,3722.781158 562.625738,3729.185350"/>
    <poly id="-177449" type="building" color="255,230,230" fill="1" layer="-1.00" shape="1444.501194,3855.702738 1459.100655,3862.716594 1454.008476,3873.216116 1445.090284,3868.921915 1443.326529,3872.557633 1437.654663,3869.827015 1444.501194,3855.702738"/>
    <poly id="-177452" type="building" color="255,230,230" fill="1" layer="-1.00" shape="1253.412486,2276.141633 1246.041161,2293.283913 1265.949592,2301.761337 1273.320947,2284.619068 1253.412486,2276.141633"/>
    <poly id="-177455" type="building" color="255,230,230" fill="1" layer="-1.00" shape="184.640627,1476.743694 191.283143,1457.388898 252.438247,1478.178146 250.916120,1482.636226 255.027636,1484.031419 252.510290,1491.369463 246.920495,1489.471138 248.298680,1485.465600 212.976783,1473.458562 212.670483,1474.352371 208.198657,1472.831513 209.270528,1469.719785 194.866384,1464.825463 193.382555,1469.173206 206.123681,1473.495969 205.204902,1476.166332 251.928083,1492.049892 249.602225,1498.825153 184.640627,1476.743694"/>
    <poly id="-177458" type="building" color="255,230,230" fill="1" layer="-1.00" shape="3683.658942,1596.988265 3674.320516,1588.655972 3676.507934,1586.232527 3660.190870,1571.676232 3644.653139,1588.936920 3662.411907,1604.771726 3666.035797,1600.747171 3673.941903,1607.789949 3683.658942,1596.988265"/>
    <poly id="-177462" type="building" color="255,230,230" fill="1" layer="-1.00" shape="1854.783161,642.840085 1840.635918,649.242846 1832.646343,631.767884 1855.199988,621.558005 1861.731174,635.838537 1853.324802,639.645636 1854.783161,642.840085"/>
    <poly id="-177464" type="leisure" color="207,245,201" fill="1" layer="-2.00" shape="3613.822964,2186.552913 3645.108119,2168.945863 3634.812333,2150.812398 3603.517869,2168.419380 3613.822964,2186.552913"/>
    <poly id="-177464#1" type="sport" color="79,230,125" fill="1" layer="-2.00" shape="3613.822964,2186.552913 3645.108119,2168.945863 3634.812333,2150.812398 3603.517869,2168.419380 3613.822964,2186.552913"/>
    <poly id="-177469" type="building" color="255,230,230" fill="1" layer="-1.00" shape="3782.114794,1042.229659 3793.080659,1043.491851 3793.188686,1040.436257 3796.146208,1040.502237 3795.977996,1031.407532 3784.183687,1030.424122 3782.114794,1042.229659"/>
    <poly id="-177470" type="building" color="255,230,230" fill="1" layer="-1.00" shape="1519.697196,3952.142007 1518.415822,3951.474666 1514.298418,3959.282367 1500.572159,3952.122837 1506.847687,3940.218539 1521.855333,3948.045418 1519.697196,3952.142007"/>
    <poly id="-177473" type="building" color="255,230,230" fill="1" layer="-1.00" shape="1175.927318,2779.526303 1167.083811,2775.078159 1161.246010,2786.776976 1164.797490,2788.454492 1164.181377,2789.699337 1169.585959,2792.349349 1175.927318,2779.526303"/>
    <poly id="-177475" type="building" color="255,230,230" fill="1" layer="-1.00" shape="1696.132458,1951.738630 1691.242022,1907.683562 1690.718172,1902.981970 1702.089813,1900.956856 1708.839956,1901.838651 1709.076718,1904.798314 1711.192664,1904.633017 1711.117256,1911.576378 1709.188787,1911.555435 1709.163651,1913.869888 1705.281917,1914.403646 1710.316069,1950.342127 1696.132458,1951.738630"/>
    <poly id="-177477" type="residential" color="235,235,227" fill="1" layer="-3.00" shape="3132.995304,2636.110224 3101.760443,2585.362570 3184.110820,2539.387613 3212.367867,2593.613605 3132.995304,2636.110224"/>
    <poly id="-177478" type="building" color="255,230,230" fill="1" layer="-1.00" shape="2805.102400,701.040868 2818.334641,680.043327 2830.916587,687.889771 2816.221305,711.219202 2808.677765,706.506976 2810.140664,704.186142 2805.102400,701.040868"/>
    <poly id="-177483" type="building" color="255,230,230" fill="1" layer="-1.00" shape="1592.770340,2564.617548 1589.173977,2575.620554 1575.416547,2571.151945 1576.510066,2567.785856 1571.548438,2566.181494 1573.092463,2561.458036 1575.346863,2562.191308 1578.655236,2552.093343 1589.031213,2555.450967 1586.681634,2562.635465 1592.770340,2564.617548"/>
    <poly id="-177487" type="building" color="255,230,230" fill="1" layer="-1.00" shape="1249.317517,2470.467760 1253.979839,2441.456758 1269.520754,2443.939563 1264.867657,2472.950665 1249.317517,2470.467760"/>
    <poly id="-177490" type="leisure" color="207,245,201" fill="1" layer="-2.00" shape="3542.606876,2957.771692 3560.923708,2958.129264 3561.481663,2920.246698 3543.560944,2920.115013 3542.606876,2957.771692"/>
    <poly id="-177490#1" type="sport" color="79,230,125" fill="1" layer="-2.00" shape="3542.606876,2957.771692 3560.923708,2958.129264 3561.481663,2920.246698 3543.560944,2920.115013 3542.606876,2957.771692"/>
    <poly id="-177492" type="building" color="255,230,230" fill="1" layer="-1.00" shape="2658.732198,445.535715 2683.949996,407.292191 2696.399437,415.424944 2682.130555,437.075808 2671.181608,453.668436 2658.732198,445.535715"/>
    <poly id="-177494" type="residential" color="235,235,227" fill="1" layer="-3.00" shape="3376.010666,2330.518643 3287.099431,2170.706706 3335.859793,2127.286508 3428.173623,2298.854165 3376.010666,2330.518643"/>
    <poly id="-177496" type="building" color="255,230,230" fill="1" layer="-1.00" shape="1152.646211,2889.340444 1171.679903,2892.857631 1167.703509,2914.200948 1151.325589,2911.166547 1153.244863,2900.865164 1150.598521,2900.371408 1152.646211,2889.340444"/>
    <poly id="-177500" type="building" color="255,230,230" fill="1" layer="-1.00" shape="1228.014052,2859.432421 1213.254245,2859.372504 1213.218291,2848.119668 1214.534353,2848.167124 1227.721893,2847.866708 1228.014052,2859.432421"/>
    <poly id="-177506" type="building" color="255,230,230" fill="1" layer="-1.00" shape="878.916487,1650.546931 901.778955,1657.826008 896.233175,1675.098965 894.089300,1674.411352 891.824701,1681.486163 894.541630,1682.346078 893.265543,1686.319407 890.881322,1685.562756 885.594859,1702.007868 884.236337,1701.583448 878.661961,1718.933631 855.799625,1711.654609 861.517929,1693.851881 862.645376,1694.207356 868.152447,1677.077944 870.185421,1677.731129 878.916487,1650.546931"/>
    <poly id="-177508" type="building" color="255,230,230" fill="1" layer="-1.00" shape="2700.367926,511.978342 2709.462363,498.743381 2729.713998,512.532552 2747.470844,524.633131 2738.376377,537.868059 2700.367926,511.978342"/>
    <poly id="-177509" type="landuse" color="194,194,130" fill="1" layer="-3.00" shape="3371.456102,1688.653617 3443.660340,1636.067473 3483.169951,1804.195171 3458.001583,1814.460926 3371.456102,1688.653617"/>
    <poly id="-177510" type="building" color="255,230,230" fill="1" layer="-1.00" shape="2742.879155,506.120311 2755.281619,488.070684 2769.936661,466.734267 2782.023217,474.962834 2754.965681,514.348845 2742.879155,506.120311"/>
    <poly id="-177514" type="building" color="255,230,230" fill="1" layer="-1.00" shape="1514.952959,3650.223066 1510.998742,3641.264591 1544.383934,3626.675131 1548.338006,3635.644697 1514.952959,3650.223066"/>
    <poly id="-177517" type="building" color="255,230,230" fill="1" layer="-1.00" shape="1513.678232,3020.602820 1520.825718,3020.680329 1520.986042,3005.896601 1513.838545,3005.819092 1513.678232,3020.602820"/>
    <poly id="-177518" type="parking" color="184,184,179" fill="1" layer="-1.00" shape="3519.288711,1147.672723 3541.327144,1133.806238 3519.076370,1098.894696 3498.024527,1113.270517 3519.288711,1147.672723"/>
    <poly id="-177520" type="building" color="255,230,230" fill="1" layer="-1.00" shape="708.069183,132.192544 717.367707,139.424919 729.751336,123.665160 720.462077,116.432873 708.069183,132.192544"/>
    <poly id="-177524" type="building" color="255,230,230" fill="1" layer="-1.00" shape="987.089575,3711.041226 991.438673,3702.349792 1001.195020,3707.184218 996.845916,3715.875646 987.089575,3711.041226"/>
    <poly id="-177525" type="parking" color="184,184,179" fill="1" layer="-1.00" shape="1436.207799,980.529772 1431.861937,973.069326 1427.767123,955.400686 1434.612253,952.677291 1439.395562,958.673797 1442.452415,974.862507 1436.207799,980.529772"/>
    <poly id="-177526" type="building" color="255,230,230" fill="1" layer="-1.00" shape="3725.330219,2872.597322 3698.354495,2826.081215 3717.031248,2819.077955 3741.642949,2864.726211 3725.330219,2872.597322"/>
    <poly id="-177527" type="building" color="255,230,230" fill="1" layer="-1.00" shape="2885.079323,1995.678617 2879.463929,1986.047884 2899.993496,1971.687203 2906.292412,1981.558039 2885.079323,1995.678617"/>
    <poly id="-177528" type="building" color="255,230,230" fill="1" layer="-1.00" shape="735.666376,3933.125366 730.268100,3942.857759 706.306259,3929.697178 711.704517,3919.964772 735.666376,3933.125366"/>
    <poly id="-177529" type="school" color="237,199,199" fill="1" layer="-2.00" shape="1659.212134,2493.825773 1667.193847,2497.378991 1673.598048,2483.117149 1665.616324,2479.563926 1659.212134,2493.825773"/>
    <poly id="-177529#1" type="building" color="255,230,230" fill="1" layer="-1.00" shape="1659.212134,2493.825773 1667.193847,2497.378991 1673.598048,2483.117149 1665.616324,2479.563926 1659.212134,2493.825773"/>
    <poly id="-177530" type="leisure" color="207,245,201" fill="1" layer="-2.00" shape="3603.517869,2168.419380 3592.928753,2149.972610 3624.372698,2132.267568 3634.812333,2150.812398 3603.517869,2168.419380"/>
    <poly id="-177530#1" type="sport" color="79,230,125" fill="1" layer="-2.00" shape="3603.517869,2168.419380 3592.928753,2149.972610 3624.372698,2132.267568 3634.812333,2150.812398 3603.517869,2168.419380"/>
    <poly id="-177531" type="building" color="255,230,230" fill="1" layer="-1.00" shape="1572.324389,2456.190507 1587.573393,2454.805404 1586.827554,2446.634852 1571.578537,2448.019956 1572.324389,2456.190507"/>
    <poly id="-177534" type="building" color="255,230,230" fill="1" layer="-1.00" shape="1506.572945,2792.597032 1511.675669,2781.178396 1523.569926,2786.435212 1520.044540,2794.326867 1531.523520,2799.401985 1530.316727,2802.102336 1539.295125,2806.064973 1536.520127,2812.303471 1514.604970,2802.607549 1517.009276,2797.206745 1506.572945,2792.597032"/>
    <poly id="-177535" type="building" color="255,230,230" fill="1" layer="-1.00" shape="643.711742,1909.390890 648.677011,1883.960212 658.170869,1885.801076 656.590659,1893.924368 655.628330,1893.736820 652.243248,1911.044202 643.711742,1909.390890"/>
    <poly id="-177537" type="building" color="255,230,230" fill="1" layer="-1.00" shape="975.368806,3383.896090 980.519703,3372.222985 984.782754,3374.096397 988.232384,3366.292350 1002.258225,3372.435409 998.761041,3380.349688 998.973296,3380.440583 997.595200,3383.571078 994.245589,3382.106227 990.529706,3390.527615 975.368806,3383.896090"/>
    <poly id="-177538" type="building" color="255,230,230" fill="1" layer="-1.00" shape="1620.574061,3627.369144 1616.298120,3617.310677 1638.846093,3607.820340 1643.122015,3617.878819 1620.574061,3627.369144"/>
    <poly id="-177540" type="building" color="255,230,230" fill="1" layer="-1.00" shape="3610.395460,1028.124714 3620.063622,1028.497410 3623.340432,956.909568 3614.225516,955.978145 3610.395460,1028.124714"/>
    <poly id="-177542" type="school" color="237,199,199" fill="1" layer="-2.00" shape="1623.923736,2480.074875 1635.447839,2478.461145 1634.560847,2472.193997 1623.036857,2473.796657 1623.923736,2480.074875"/>
    <poly id="-177542#1" type="building" color="255,230,230" fill="1" layer="-1.00" shape="1623.923736,2480.074875 1635.447839,2478.461145 1634.560847,2472.193997 1623.036857,2473.796657 1623.923736,2480.074875"/>
    <poly id="-177543" type="building" color="255,230,230" fill="1" layer="-1.00" shape="447.549578,1320.033235 457.887091,1324.540975 462.506631,1314.024799 452.168990,1309.528130 447.549578,1320.033235"/>
    <poly id="-177544" type="building" color="255,230,230" fill="1" layer="-1.00" shape="1424.130466,2250.644516 1439.498506,2252.848835 1435.980891,2277.131963 1418.168790,2274.579995 1419.120674,2268.022685 1421.564776,2268.370340 1424.130466,2250.644516"/>