<?xml version="1.0" encoding="UTF-8"?>

<!-- generated on 2025-08-30 00:02:58.221433 by scenarioFromOSM.py UNKNOWN
<configuration>
    <net-file value="osm.net.xml"/>
    <ptlines-file value="osm_ptlines.xml"/>
    <ptstops-file value="osm_stops.add.xml"/>
    <output-file value="osm_pt.rou.xml"/>
    <begin value="14400.0"/>
    <end value="86400.0"/>
    <random-begin value="True"/>
    <seed value="42"/>
    <ignore-errors value="True"/>
    <vtype-prefix value="pt_"/>
    <verbose value="True"/>
</configuration>
-->

<routes xmlns:xsi="http://www.w3.org/2001/XMLSchema-instance" xsi:noNamespaceSchemaLocation="http://sumo.dlr.de/xsd/routes_file.xsd">
    <vType id="pt_bus" vClass="bus"/>
    <vType id="pt_tram" vClass="tram"/>
    <vType id="pt_train" vClass="rail"/>
    <vType id="pt_subway" vClass="subway"/>
    <vType id="pt_light_rail" vClass="rail_urban"/>
    <vType id="pt_monorail" vClass="rail_urban"/>
    <vType id="pt_trolleybus" vClass="bus"/>
    <vType id="pt_minibus" vClass="bus"/>
    <vType id="pt_share_taxi" vClass="taxi"/>
    <vType id="pt_aerialway" vClass="cable_car" length="2.5" width="2" personCapacity="4"/>
    <vType id="pt_ferry" vClass="ship"/>
    <route id="pt_bus_72:0" edges="--361076#10 --364494 -360862#1 -363683#0 -363683#1 -363683#2 -361076#12 -361076#13 -362840#0 -362840#1 -362840#2 -361827#1 -364226#0 --361277#1 --361277#0 --362840#4 --362840#3 --362840#2 --362840#1 --362840#0 --361076#13 --361076#12 --361076#11 --361076#10 --361076#9 --361076#8 --361076#7 --361076#6 --361076#5 --361076#4 --361076#3 --361076#2 --361076#1 --360649#2 --360649#1 --360649#0 -363327 --364054#1 -364734#0 -364734#1 --362270 --361244 -364054#0" >
        <stop busStop="-1309946" duration="20" until="31.0"/> <!-- Stade Hay Hassani -->
        <stop busStop="-1310234" duration="20" until="116.0"/> <!-- Mosquée Afghanistan -->
        <stop busStop="-1300217" duration="20" until="313.0"/> <!-- Terminus Sidi Al-Khadir -->
    </route>
    <route id="pt_bus_BW2:0" edges="-364520#6 -364520#7 -364520#8 -364520#9 -364520#11 -364520#12 -364520#13 -364520#14 -364520#15 -364520#16 -364520#17 -364520#20 -364520#21 -364520#23 -362547#0 -362547#1 -364520#28" >
        <stop busStop="-1318070" duration="20" until="44.0"/> <!-- Les Musees -->
        <stop busStop="-1297565" duration="20" until="116.0"/> <!-- Oued Oum Rabia -->
        <stop busStop="-1303056" duration="20" until="259.0"/> <!-- Oued Laou -->
        <stop busStop="-1316779" duration="20" until="355.0"/> <!-- Oued Beht -->
        <stop busStop="-1300165" duration="20" until="419.0"/> <!-- Moulouya -->
    </route>
    <route id="pt_bus_BW2:1" edges="-364836#3 -361157 -364302#0 -364302#1 -364302#2 -364836#8 -364836#10 -364836#11 -364836#14 -364836#15 -364836#16 -364836#17 -364836#18 -364836#19 -364836#20 -364836#22 -364836#23 -364836#24 -364836#25" >
        <stop busStop="-1300867" duration="20" until="50.0"/> <!-- Moulouya -->
        <stop busStop="-1311424" duration="20" until="128.0"/> <!-- Oued Beht -->
        <stop busStop="-1307196" duration="20" until="222.0"/> <!-- Oued Laou -->
        <stop busStop="-1307150" duration="20" until="326.0"/> <!-- Oued Oum Rabia -->
        <stop busStop="-1312014" duration="20" until="391.0"/> <!-- Les Musees -->
    </route>
    <route id="pt_bus_L109:0" edges="-361243 -363745#3 -363745#4 -363745#5 -363745#6 -363745#7 -363745#10 -363745#11 -363745#12 -360645#0 -360645#1 -362465#0 -362465#1 -362465#2 -362465#3 -362465#4 -362465#5 -362465#6 -362465#7 -362465#8 -362465#9 -362465#10 -362465#11 -361015#0 -361015#1 -361015#2 -361015#3 -361015#4 -362547#0 -362547#1 -364131#1 -364131#2 -362941#0 -362941#1 -362941#2 -362941#4 -362941#5 -362941#6 -362941#7 -362941#8 -362941#10 -361847#0 -361847#1 -361847#2 -361847#3 -364544#1 -364544#2 -362218#0 -364567#0 -364567#1 -364567#2 -364567#3 -361441#0 -361441#1 -361441#2 -361441#3 -361441#4 -361449#0 -361449#1 -361449#2 -363195 --361626#2 --361626#1 --361499#1 --361499#0 --360913#2 --360913#1 --360913#0 --362063#2 --362063#1 --362063#0 --362820" >
        <stop busStop="-1301380" duration="20" until="45.0"/> <!-- L'Academie -->
        <stop busStop="-1305082" duration="20" until="127.0"/> <!-- Polyclinique CNSS Rabia -->
        <stop busStop="-1307043" duration="20" until="188.0"/> <!-- Carr. Schneider -->
        <stop busStop="-1318905" duration="20" until="386.0"/> <!-- Résidence Abwab Rabia -->
        <stop busStop="-1307541" duration="20" until="459.0"/> <!-- Lycée Fechtali -->
        <stop busStop="-1300865" duration="20" until="516.0"/> <!-- École Al Ajial -->
        <stop busStop="-1305957" duration="20" until="593.0"/> <!-- École Elbennay -->
        <stop busStop="-1315940" duration="20" until="656.0"/> <!-- C.A. Tensift -->
        <stop busStop="-1308978" duration="20" until="709.0"/> <!-- Oulfa -->
        <stop busStop="-1316105" duration="20" until="808.0"/> <!-- Rond Point Chahdia -->
        <stop busStop="-1307069" duration="20" until="867.0"/> <!-- Mosquée El Fath -->
        <stop busStop="-1319104" duration="20" until="925.0"/> <!-- Café Atlas -->
    </route>
    <route id="pt_bus_L13:0" edges="-361090#3 -361363#0 -361363#1 -363696#0 -363696#1 -363696#2 -360818#0 -360818#1 -362292#0 -362777#1 -362777#2 -362777#3 -363304#1 -363304#2 -362728#0 -362728#1 -362650#0 -362650#1 -362650#2 -362650#3 -362650#4 -360657#0 -360657#1 -360657#2 -363763#0 -363763#1 -362100#0 -362100#1 -362100#2 -362100#3 -362100#5 -362100#6 -362100#7 -362046#0 -362046#1 -362046#2 -362046#3 -364448#1 -362326#1 -362326#2 -362326#4 -361935#1 -361935#2 -361935#3 -361935#6 -361935#7" >
        <stop busStop="-1297690" duration="20" until="41.0"/> <!-- Terminus Hay Salam -->
        <stop busStop="-1308918" duration="20" until="102.0"/> <!-- Hay Salam -->
        <stop busStop="-1316081" duration="20" until="257.0"/> <!-- Tribunal -->
        <stop busStop="-1298113" duration="20" until="324.0"/> <!-- Résidences Firdaouss -->
        <stop busStop="-1299936" duration="20" until="536.0"/> <!-- Carr. Schneider -->
        <stop busStop="-1304523" duration="20" until="596.0"/> <!-- Polyclinique CNSS Rabia -->
    </route>
    <route id="pt_bus_L13:1" edges="-363745#3 -363745#4 -363745#5 -363745#6 -363745#7 -363745#10 -363745#11 -363745#12 -360645#0 -360645#1 -364299#4 -364891 -361708#0 -361708#1 -361708#2 -361708#3 -360607#1 -360607#2 -360607#5 -360607#6 -362586#2 -362586#3 -363783 -360614#0 -360614#1 -360614#2 -360614#3 -360614#4 -363356#0 -363356#1 -363356#2 -364818#1 -362242#1 -362242#2 -362242#3 -362592#0 -362592#1 -362592#2 -364015 -361925#0 -361925#1 -361951 -363992#0" >
        <stop busStop="-1305082" duration="20" until="37.0"/> <!-- Polyclinique CNSS Rabia -->
        <stop busStop="-1307043" duration="20" until="97.0"/> <!-- Carr. Schneider -->
        <stop busStop="-1305225" duration="20" until="255.0"/> <!-- Résidences Firdaouss -->
        <stop busStop="-1316390" duration="20" until="322.0"/> <!-- Tribunal -->
        <stop busStop="-1316060" duration="20" until="470.0"/> <!-- Hay Salam -->
        <stop busStop="-1315879" duration="20" until="539.0"/> <!-- Terminus Hay Salam -->
    </route>
    <route id="pt_bus_L143:0" edges="-364596 -362970#3 -362970#4 -362970#5 -362970#6 -362970#7 -362970#8 --362941#10 --362941#8 --362941#7 --362941#6 --362941#5 --362941#4 --362941#2 --362941#1 --362941#0 --364379 -364576#1 -364576#2 -364812#0 -361157 -364302#0 -364302#1 -364302#2 -361298#0 -361298#1 -361298#2 -361012#0 -361012#1 -361591#4 --363440#14 --363440#13 --363440#12 --363440#11 --363440#10 --363440#9 --363440#8 --363440#7 --363440#5 --363440#4 --363440#3 --363440#2 --363440#1 --363440#0 --363548#19 --363548#18 --363548#17 --363548#15 --363548#14 --363548#13 --363548#12 --363548#11 --363548#10 --363548#8 --363548#7 --363548#6 --363548#5 --363548#4 --363548#2" >
        <stop busStop="-1312177" duration="20" until="49.0"/> <!-- Terminus Mosquée Ferrara -->
        <stop busStop="-1313606" duration="20" until="114.0"/> <!-- C.A. Tensift -->
        <stop busStop="-1307804" duration="20" until="176.0"/> <!-- École Elbennay -->
        <stop busStop="-1299194" duration="20" until="268.0"/> <!-- Lycée Fechtali -->
        <stop busStop="-1301630" duration="20" until="408.0"/> <!-- Marjane Hay Hassani -->
        <stop busStop="-1306905" duration="20" until="485.0"/> <!-- Souk Ould Mina -->
        <stop busStop="-1301325" duration="20" until="562.0"/> <!-- Dar Lhamra -->
    </route>
    <route id="pt_bus_L143:1" edges="--363548#2 -364549 --362222#0 -361827#9 -363548#4 -363548#5 -363548#6 -363548#7 -363548#8 -363548#10 -363248#0 --362061 --363695#7 --363548#12 --363548#11 -363248#0 -363248#1 -363248#2 -363248#3 -363248#4 -363527#0 -363527#1 -363527#2 -363527#3 -363527#4 -363527#5 --363440#5 --363440#4 --363440#3 --363440#2 --363440#1 --363440#0 --363548#19 -363273#0 -363624#0 -363624#1 --361103#0 -363548#18 -363548#19 -363440#0 -363440#1 -363440#2 -363440#3 -363440#4 -363440#5 -363440#7 -363440#8 -363440#9 -363440#10 -363440#11 -363440#12 --362398 -361241#3 -361241#4 -361241#5 --363560#0 --363440#14 --363440#13 --362398 -361241#3 -361241#4 -361241#5 --363560#0 -361967#0 -361015#0 -361015#1 -361015#2 -361015#3 -361015#4 -362547#0 -362547#1 -361157 -364302#0 -362661#0 --363366 --364933#0 -362547#0 -362547#1 -362305 --361497#2 --361497#1 --363472#1 --363472#0 --363889#4 --363889#3 --363889#2 --363889#1 --363889#0 --362941#7 --362941#6 --362941#5 --362941#4 --362941#2 --362941#1 --362941#0 -361284#0 -361284#1 -361284#2 -363631#5 -363631#6 -363631#7 -363631#8 -363631#9 -363631#10 -360594#0 -360594#1 -363957#0 -363957#1 -363957#2 -363957#3 -363957#4 -363957#5 --362941#10 --362025#4 -362599 -363045#2 -363045#3 -363045#4 -363045#5 -361165#0 -361165#1 -361165#2 -361337" >
        <stop busStop="-1300954@-4088" duration="20" until="45.0"/> <!-- Dar Lhamra -->
        <stop busStop="-1309908@-4088" duration="20" until="156.0"/> <!-- Souk Ould Mina -->
        <stop busStop="-1297996@-4088" duration="20" until="257.0"/> <!-- Cité Police Ibn Sina -->
        <stop busStop="-1318853" duration="20" until="424.0"/> <!-- Café Kairaouan -->
        <stop busStop="-1307541@-4088" duration="20" until="584.0"/> <!-- Lycée Fechtali -->
        <stop busStop="-1305957@-4086" duration="20" until="699.0"/> <!-- École Elbennay -->
        <stop busStop="-1315940@-4086" duration="20" until="809.0"/> <!-- C.A. Tensift -->
        <stop busStop="-1303456" duration="20" until="901.0"/> <!-- Terminus Mosquée Ferrara -->
    </route>
    <route id="pt_bus_L19:0" edges="-361076#5 -361076#6 -361076#7 -361076#8 -361076#9 -361076#10 -361076#11 -361076#12 -361076#13 -362840#0 -362840#1 -362840#2" >
        <stop busStop="-1299777" duration="20" until="38.0"/> <!-- Café Tafoukt -->
        <stop busStop="-1302193" duration="20" until="92.0"/> <!-- Café Bouchiki -->
        <stop busStop="-1303655" duration="20" until="150.0"/> <!-- Mosquée Afghanistan -->
    </route>
    <route id="pt_bus_L19:1" edges="--362840#2 --362840#1 --362840#0 --361076#13 --361076#12 --361076#11 --361076#10 --361076#9 --361076#8 --361076#7 --361076#6 --361076#5" >
        <stop busStop="-1310234@-4102" duration="20" until="43.0"/> <!-- Mosquée Afghanistan -->
        <stop busStop="-1312482" duration="20" until="100.0"/> <!-- Café Bouchiki -->
        <stop busStop="-1311578" duration="20" until="156.0"/> <!-- Café Tafoukt -->
    </route>
    <route id="pt_bus_L301:0" edges="-364054#0 -364054#1 -362482#0 -362482#1 -362482#2 -361693#0 -361693#1 -361693#2 -361693#3 -361693#4 -361693#5 -364669#0 -364669#1 -364669#2 -364669#3 -364669#4 -364669#5 -364669#6 -364669#7" >
        <stop busStop="-1307753" duration="20" until="34.0"/> <!-- Sidi Al Khadir -->
        <stop busStop="-1318756" duration="20" until="112.0"/> <!-- Stade Hay Hassani -->
        <stop busStop="-1301968" duration="20" until="177.0"/> <!-- Hay Hassani -->
    </route>
    <route id="pt_bus_L301:1" edges="--362026#3 --362026#2 --362026#1 --362026#0 --360649#2 --360649#1 --360649#0 -363327 -361822#0 -361822#1 -361822#2 -361822#3 -361822#4 -361822#5" >
        <stop busStop="-1308094" duration="20" until="38.0"/> <!-- Hay Hassani T2 -->
        <stop busStop="-1297882" duration="20" until="97.0"/> <!-- ISTA Afghanistan -->
        <stop busStop="-1299435" duration="20" until="173.0"/> <!-- Derb Jamila -->
    </route>
    <route id="pt_bus_L50:0" edges="-361337 -362938#0 -362938#1 -362938#2 -361645#0 -361645#1 -361645#2 -361645#3 -361645#4 -361157 -364302#0 -364302#1 -364302#2 -361298#0 -361298#1 -361298#2 -361012#0 -361012#1 -361591#4 --363440#14 --363440#13 --363440#12 --363440#11 --363440#10 --363440#9 --363440#8 --363440#7 --363440#5 --363440#4 --363440#3 --363440#2 --363440#1 --363440#0 --363548#19 --363548#18 --363548#17 --363548#15 --363548#14 --363548#13 --363548#12 --363548#11 --363548#10 --363548#8 --363548#7 --363548#6 --363548#5 --363548#4 --363548#2" >
        <stop busStop="-1303456" duration="20" until="41.0"/> <!-- Terminus Mosquée Ferrara -->
        <stop busStop="-1297786" duration="20" until="108.0"/> <!-- École Al Ajial -->
        <stop busStop="-1299194" duration="20" until="165.0"/> <!-- Lycée Fechtali -->
        <stop busStop="-1310571" duration="20" until="238.0"/> <!-- Café Kairaouan -->
        <stop busStop="-1301630" duration="20" until="315.0"/> <!-- Marjane Hay Hassani -->
        <stop busStop="-1306905" duration="20" until="401.0"/> <!-- Souk Ould Mina -->
        <stop busStop="-1301325" duration="20" until="478.0"/> <!-- Dar Lhamra -->
    </route>
    <route id="pt_bus_L50:1" edges="-363548#2 -363548#4 -363548#5 -363548#6 -363548#7 -363548#8 -363548#10 -363548#11 -363548#12 -363548#13 -363548#14 -363548#15 -363548#17 -363548#18 -363548#19 -363440#0 -363440#1 -363440#2 -363440#3 -363440#4 -363440#5 -363440#7 -363440#8 -363440#9 -363440#10 -363440#11 -363440#12 -363440#13 -363440#14 -361967#0 -361015#0 -361015#1 -361015#2 -361015#3 -361015#4 -362547#0 -362547#1 -362305 -364596" >
        <stop busStop="-1300954" duration="20" until="34.0"/> <!-- Dar Lhamra -->
        <stop busStop="-1309908" duration="20" until="106.0"/> <!-- Souk Ould Mina -->
        <stop busStop="-1297996" duration="20" until="182.0"/> <!-- Cité Police Ibn Sina -->
        <stop busStop="-1307541" duration="20" until="286.0"/> <!-- Lycée Fechtali -->
        <stop busStop="-1300865" duration="20" until="343.0"/> <!-- École Al Ajial -->
        <stop busStop="-1312177" duration="20" until="409.0"/> <!-- Terminus Mosquée Ferrara -->
    </route>
    <route id="pt_bus_L63:0" edges="--362840#2 --362840#1 --362840#0 --361076#13 --361076#12 --361076#11 --361076#10 --361076#9 --361076#8 --361076#7 --361076#6 --361076#5 --361076#4 --361076#3 --361076#2 --361076#1 --360649#2 --360649#1 --360649#0 -363327 --364054#1 -364734#0 -364734#1 --362270 --361244 -364054#0" >
        <stop busStop="-1310234@-4102" duration="20" until="46.0"/> <!-- Mosquée Afghanistan -->
        <stop busStop="-1312482" duration="20" until="105.0"/> <!-- Café Bouchiki -->
        <stop busStop="-1311578" duration="20" until="161.0"/> <!-- Café Tafoukt -->
        <stop busStop="-1297882" duration="20" until="228.0"/> <!-- ISTA Afghanistan -->
        <stop busStop="-1307753" duration="20" until="314.0"/> <!-- Sidi Al Khadir -->
    </route>
    <route id="pt_bus_L63:1" edges="-364054#0 -364054#1 -362482#0 -362482#1 -362482#2 -361693#0 -361693#1 -361693#2 -361693#3 -361693#4 -361693#5 -364669#0 -364669#1 -364669#2 -364669#3 -364669#4 -364669#5 -364669#6 -364669#7 -364781#0 -364781#1 -361076#9 -361076#10 -361076#11 -361076#12 -361076#13 -362840#0 -362840#1 -362840#2 -362840#3 -362840#4 -362840#5 -362713#0 -361109" >
        <stop busStop="-1300374" duration="20" until="39.0"/> <!-- Sidi Al Khadir -->
        <stop busStop="-1318756" duration="20" until="122.0"/> <!-- Stade Hay Hassani -->
        <stop busStop="-1301968" duration="20" until="188.0"/> <!-- Hay Hassani -->
        <stop busStop="-1303655" duration="20" until="263.0"/> <!-- Mosquée Afghanistan -->
        <stop busStop="-1300468" duration="20" until="329.0"/> <!-- Hay El Hana -->
    </route>
    <route id="pt_bus_L68:0" edges="-363745#3 -363745#4 -363745#5 -363745#6 -363745#7 -363745#10 -363745#11 -363745#12 -360645#0 -360645#1 -362465#0 -362465#1 -362465#2 -362465#3 -362465#4 -362465#5 -362465#6 -362465#7 -362465#8 -362465#9 -362465#10 -362465#11 -361015#0 -361015#1 -361015#2 -361015#3 -361015#4 -362547#0 -362547#1 -362305 --361497#2 --361497#1 --363472#1 --363472#0 --363889#4 --363889#3 --363889#2 --363889#1 --363889#0 --362941#7 --362941#6 --362941#5 --362941#4 --362941#2 --362941#1 --362941#0 -361284#0 -361284#1 -361284#2 -363631#5 -363631#6 -363631#7 -363631#8 -363631#9 -363631#10 -360594#0 -360594#1 -363957#0 -363957#1 -363957#2 -363957#3 -363957#4 -363957#5 --362941#10 -364492#0 -364492#2 -364492#4 -364492#5 -364492#6 -364492#7 -364492#9 -364492#10 -363631#10 -364553 -360636#0 -360963 --360716#0 --364646#0 --362218#0 -360636#0 -360963 --360716#0 -364646#1 -364646#2 -361998#0 -361998#1 -361998#2 -361998#4 -361998#5 -363188#0 -363188#1 -363188#2 -361634 -361456#0 -361053#0 -364651#0 -364651#1 -364876 -361721#3 -361626#2 -362568 -363143 -360993 -360893 -363857 -361449#0 -361449#1 -361449#2 -363195 --361626#2 --361626#1 --361499#1 --361499#0 -363699#1 -361981 -361181#0 -361181#1 -361181#2 -361181#3 -362402#0 -360913#0 -360913#1 -360913#2 -363699#1 -361981 -361181#0 -361181#1 -361181#2 -361181#3 -361927#0 -361927#1 -361927#2 -364175#0 --364084#0 -362820 --361957#0 -364175#0 -364084#1 -364084#2 -364084#3 -363878#1 --363672 --360760#3 --363662 --363878#3 --363878#1 --361922#2 --364693 -364693 -361922#2 -363878#1 -363878#3 -363342 -361090#0 -361090#1 -361090#3" >
        <stop busStop="-1305082" duration="20" until="38.0"/> <!-- Polyclinique CNSS Rabia -->
        <stop busStop="-1307043" duration="20" until="99.0"/> <!-- Carr. Schneider -->
        <stop busStop="-1318905" duration="20" until="298.0"/> <!-- Résidence Abwab Rabia -->
        <stop busStop="-1307541" duration="20" until="372.0"/> <!-- Lycée Fechtali -->
        <stop busStop="-1300865" duration="20" until="430.0"/> <!-- École Al Ajial -->
        <stop busStop="-1305957@-4086" duration="20" until="536.0"/> <!-- École Elbennay -->
        <stop busStop="-1315940@-4086" duration="20" until="644.0"/> <!-- C.A. Tensift -->
        <stop busStop="-1308978@-4086" duration="20" until="764.0"/> <!-- Oulfa -->
        <stop busStop="-1316105@-4086" duration="20" until="882.0"/> <!-- Rond Point Chahdia -->
        <stop busStop="-1307069@-4086" duration="20" until="990.0"/> <!-- Mosquée El Fath -->
        <stop busStop="-1308890" duration="20" until="1089.0"/> <!-- Etablissement Moussaoui -->
        <stop busStop="-1304466" duration="20" until="1206.0"/> <!-- Groupe Scolaire Al Amjad -->
        <stop busStop="-1297690" duration="20" until="1311.0"/> <!-- Terminus Hay Salam -->
    </route>
    <route id="pt_bus_L68:1" edges="-363992#0 -363992#2 --363342 --363878#3 --363878#1 --364084#3 --364084#2 --364084#1 --364084#0 -362820 -362063#0 -362063#1 -362063#2 -360913#0 -360913#1 -360913#2 -361499#0 -361499#1 -361626#1 -361626#2 -362568 -363143 -360993 -360893 -364359#0 -364359#1 -360854#0 -360854#1 -360854#2 --364567#3 --364567#2 --364567#1 --364567#0 --362218#0 --364553 -360594#0 -360594#1 -363957#0 -363957#1 -363957#2 -363957#3 -363957#4 -363957#5 --362941#10 --362941#8 --362941#7 --362941#6 --362941#5 --362941#4 --362941#2 --362941#1 --362941#0 --364379 -364576#1 -364576#2 -364812#0 -361157 -364302#0 -364302#1 -364302#2 -361298#0 -361298#1 -361298#2 -361012#0 -361012#1 -364519#0 -364519#1 -364519#2 -360736 -360948#0 -360948#1 -364836#14 -361935#1 -361935#2 -361935#3 -361935#6 -361935#7" >
        <stop busStop="-1315879" duration="20" until="34.0"/> <!-- Terminus Hay Salam -->
        <stop busStop="-1303612" duration="20" until="103.0"/> <!-- Groupe Scolaire Al Amjad -->
        <stop busStop="-1302544" duration="20" until="183.0"/> <!-- Mosquée El Fath -->
        <stop busStop="-1315816" duration="20" until="244.0"/> <!-- Rond Point Chahdia -->
        <stop busStop="-1317797" duration="20" until="342.0"/> <!-- Oulfa -->
        <stop busStop="-1313606" duration="20" until="397.0"/> <!-- C.A. Tensift -->
        <stop busStop="-1307804" duration="20" until="458.0"/> <!-- École Elbennay -->
        <stop busStop="-1297786" duration="20" until="536.0"/> <!-- École Al Ajial -->
        <stop busStop="-1299194" duration="20" until="594.0"/> <!-- Lycée Fechtali -->
        <stop busStop="-1317248" duration="20" until="668.0"/> <!-- Résidence Abwab Rabia -->
        <stop busStop="-1299936" duration="20" until="779.0"/> <!-- Carr. Schneider -->
        <stop busStop="-1304523" duration="20" until="839.0"/> <!-- Polyclinique CNSS Rabia -->
    </route>
    <route id="pt_bus_L84:0" edges="-361337 -362938#0 -362938#1 -362938#2 -361645#0 -361645#1 -361645#2 -361645#3 -361645#4 -364836#5 -364836#6 -364091#1 -364091#2 -364091#3 -364091#4 -364162#1 -364162#2 -364162#4 -364162#5 -364815#0 -364815#1 -364815#2 --363512#3 --363512#2 --363512#1 --363512#0 -363131#5 -363131#6 -364377#0 -364377#1 -364377#2 -364377#3 -363327 --364054#1 -364734#0 -364734#1 --362270 --361244 -364054#0 -364054#1 -361822#0 -361822#1 -361822#2 -361822#3 -361822#4 -361822#5" >
        <stop busStop="-1303456" duration="20" until="41.0"/> <!-- Terminus Mosquée Ferrara -->
        <stop busStop="-1307753" duration="20" until="289.0"/> <!-- Sidi Al Khadir -->
        <stop busStop="-1299435" duration="20" until="355.0"/> <!-- Derb Jamila -->
    </route>
    <route id="pt_bus_L97B:0" edges="-361243 -363745#3 -363745#4 -363745#5 -363745#6 -363745#7 -363745#10 -363745#11 -363745#12 -360645#0 -360645#1 -364299#4 -364891 -361708#0 -361708#1 -361708#2 -361708#3 -360607#1 -360607#2 -360607#5 -360607#6 -362586#2 -362586#3 -363783 -360614#0 -360614#1 -360614#2 -360614#3 -360614#4 -363356#0 -363356#1 -363356#2 -364818#1 -362242#1 -362242#2 -362242#3 -362592#0 -362592#1 -362592#2 -364015 -361925#0 -361925#1 -361951 -363992#0" >
        <stop busStop="-1301380" duration="20" until="46.0"/> <!-- L'Academie -->
        <stop busStop="-1305082" duration="20" until="132.0"/> <!-- Polyclinique CNSS Rabia -->
        <stop busStop="-1307043" duration="20" until="193.0"/> <!-- Carr. Schneider -->
        <stop busStop="-1305225" duration="20" until="433.0"/> <!-- Résidences Firdaouss -->
        <stop busStop="-1316390" duration="20" until="498.0"/> <!-- Tribunal -->
        <stop busStop="-1316060" duration="20" until="666.0"/> <!-- Hay Salam -->
        <stop busStop="-1315879" duration="20" until="736.0"/> <!-- Terminus Hay Salam -->
    </route>
    <route id="pt_bus_L97B:1" edges="-361090#3 -361363#0 -361363#1 -363696#0 -363696#1 -363696#2 -360818#0 -360818#1 -362292#0 -362777#1 -362777#2 -362777#3 -363304#1 -363304#2 -362728#0 -362728#1 -362650#0 -362650#1 -362650#2 -362650#3 -362650#4 -360657#0 -360657#1 -360657#2 -363763#0 -363763#1 -362100#0 -362100#1 -362100#2 -362100#3 -362100#5 -362100#6 -362100#7 -362046#0 -362046#1 -362046#2 -362046#3 -364448#1 -362326#1 -362326#2 -362326#4 -361935#1 -361935#2 -361935#3 -361935#6 -361935#7" >
        <stop busStop="-1297690" duration="20" until="41.0"/> <!-- Terminus Hay Salam -->
        <stop busStop="-1308918" duration="20" until="101.0"/> <!-- Hay Salam -->
        <stop busStop="-1316081" duration="20" until="255.0"/> <!-- Tribunal -->
        <stop busStop="-1298113" duration="20" until="321.0"/> <!-- Résidences Firdaouss -->
        <stop busStop="-1299936" duration="20" until="486.0"/> <!-- Carr. Schneider -->
        <stop busStop="-1304523" duration="20" until="546.0"/> <!-- Polyclinique CNSS Rabia -->
    </route>
    <route id="pt_bus_L9E:0" edges="--363878#1 --364084#3 --364084#2 --364084#1 --364084#0 -362820 -362063#0 -362063#1 -362063#2 -360913#0 -360913#1 -360913#2 -361499#0 -361499#1 -361626#1 -361626#2 -362568 -363143 -360993 -360893 -364359#0 -364359#1 -360854#0 -360854#1 -360854#2 --364567#3 --364567#2 --364567#1 --364567#0 --362218#0 --364553 -360594#0 -360594#1 -363957#0 -363957#1 -363957#2 -363957#3 -363957#4 -363957#5 -363045#0 -363045#1 -363045#2 -363045#3 -363045#4 -363045#5 -361165#0 -361165#1 -361165#2 -361337 -362938#0 -362938#1 -362938#2 -361645#0 -361645#1 -361645#2 -361645#3 -361645#4 -364836#5 -364836#6 -364091#1 -364091#2 -364091#3 -364091#4 -364162#1 -364162#2 -364162#4 -364162#5 -364815#0 -364815#1 -364815#2 --363512#3 --363512#2 --363512#1 --363512#0 --363131#4 --363131#3 --363131#2 --363131#1 --363131#0 --363548#19 --363548#18 --363548#17 --363548#15 --363548#14 --363548#13 --363548#12 --363548#11 --363548#10 --363548#8 --363548#7 --363548#6 --363548#5 --363548#4 --363548#2" >
        <stop busStop="-1303612" duration="20" until="41.0"/> <!-- Groupe Scolaire Al Amjad -->
        <stop busStop="-1318136" duration="20" until="94.0"/> <!-- Boulevard des Facultés -->
        <stop busStop="-1303456" duration="20" until="261.0"/> <!-- Terminus Mosquée Ferrara -->
        <stop busStop="-1303795" duration="20" until="415.0"/> <!-- Cité Police Ibn Sina -->
        <stop busStop="-1306905" duration="20" until="493.0"/> <!-- Souk Ould Mina -->
        <stop busStop="-1301325" duration="20" until="570.0"/> <!-- Dar Lhamra -->
    </route>
    <route id="pt_tram_T1:0" color="243,130,48" edges="-362613#0 -362613#2 -362613#3 -362613#4 -362613#6 -362613#7 -362613#8 -362613#9 -362613#10" >
        <stop busStop="-1312169" duration="20" until="45.0"/> <!-- Laymoune -->
        <stop busStop="-1302976" duration="20" until="221.0"/> <!-- Facultés Terminus -->
    </route>
    <route id="pt_tram_T1:1" color="243,130,48" edges="-362354#2 -362354#3 -362354#4 -362354#5 -362354#7 -362354#8 -362354#10" >
        <stop busStop="-1312010" duration="20" until="47.0"/> <!-- Facultés -->
        <stop busStop="-1309625" duration="20" until="226.0"/> <!-- Laymoune -->
    </route>
    <route id="pt_tram_T2:0" color="255,219,47" edges="-362320#1 -362320#2 -362320#3 -362320#4 -362320#8 -362320#9 -362320#10 -362320#11 -362320#12 -362320#13 -362320#14 -362320#15 -362320#17 -362320#19 -362320#20 -362320#21 -362320#22 -362320#23 -362320#24 -362320#25 -362320#30 -362320#31 -362320#33 -362320#36 -362320#39 -362320#41 -362320#42 -362320#43 -362320#44 -362320#45 -362320#46 -362320#47 -362320#48 -362320#49 -362320#51 -362320#52 -362320#53 -362320#54" >
        <stop busStop="-1308448" duration="20" until="40.0"/> <!-- Beauséjour -->
        <stop busStop="-1310492" duration="20" until="199.0"/> <!-- Anfa Clubs -->
        <stop busStop="-1314270" duration="20" until="335.0"/> <!-- Anfa Park -->
        <stop busStop="-1313253" duration="20" until="408.0"/> <!-- Place Financière -->
        <stop busStop="-1300538" duration="20" until="549.0"/> <!-- Abdellah Ben Cherif -->
        <stop busStop="-1314532" duration="20" until="681.0"/> <!-- Cité de l'Air -->
        <stop busStop="-1317699" duration="20" until="779.0"/> <!-- Sidi Abderrahmane -->
        <stop busStop="-1316156" duration="20" until="883.0"/> <!-- Hay Hassani -->
    </route>
    <route id="pt_tram_T2:1" color="255,219,47" edges="361752#0 362320#53 362320#52 362320#51 362320#49 362320#48 -363987 -361752#7 -361752#8 -361752#9 -361752#10 -361752#11 -361752#12 -361752#13 -361752#15 -361752#18 -361752#21 -361752#23 -361752#24 -361752#30 -361752#31 -361752#32 -361752#33 -361752#34 -361752#35 -361752#37 -361752#39 -361752#40 -361752#41 -361752#42 -361752#43 -361752#44 -361752#45 -361752#46 -361752#47 -361752#50 -361752#51 -361752#52 -361752#53" >
        <stop busStop="1303933" duration="20" until="31.0"/> <!-- Hay Hassani -->
        <stop busStop="-1308382" duration="20" until="142.0"/> <!-- Sidi Abderrahmane -->
        <stop busStop="-1315086" duration="20" until="243.0"/> <!-- Cité de l'Air -->
        <stop busStop="-1307748" duration="20" until="314.0"/> <!-- Abdellah Ben Cherif -->
        <stop busStop="-1307824" duration="20" until="384.0"/> <!-- Place Financière -->
        <stop busStop="-1303101" duration="20" until="458.0"/> <!-- Anfa Park -->
        <stop busStop="-1305161" duration="20" until="571.0"/> <!-- Anfa Clubs -->
        <stop busStop="-1312707" duration="20" until="715.0"/> <!-- Beauséjour -->
    </route>
    <flow id="pt_bus_L50:0" type="pt_bus" route="pt_bus_L50:0" begin="14403.0" end="86403.0" period="600" line="L50:0" >
        <param key="name" value="L50 Errahma - C. Sidi Belyout"/>
        <param key="completeness" value="1.00"/>
    </flow>
    <flow id="pt_bus_BW2:0" type="pt_bus" route="pt_bus_BW2:0" begin="14532.0" end="86532.0" period="600" line="BW2:0" >
        <param key="name" value="BW2 Oulmès-Ouled Azzouz"/>
        <param key="completeness" value="1.00"/>
    </flow>
    <flow id="pt_tram_T2:0" type="pt_tram" route="pt_tram_T2:0" begin="14533.0" end="86533.0" period="600" line="T2:0" >
        <param key="name" value="Tram 2: Sidi Bernoussi &gt; Aïn Diab"/>
        <param key="completeness" value="1.00"/>
    </flow>
    <flow id="pt_bus_L68:0" type="pt_bus" route="pt_bus_L68:0" begin="14565.0" end="86565.0" period="600" line="L68:0" >
        <param key="name" value="L68 Ouled Mellouk-Hay Salam"/>
        <param key="completeness" value="1.00"/>
    </flow>
    <flow id="pt_bus_L143:1" type="pt_bus" route="pt_bus_L143:1" begin="14601.0" end="86601.0" period="600" line="L143:1" >
        <param key="name" value="L143 Tacharouk-Ferara"/>
        <param key="completeness" value="1.00"/>
    </flow>
    <flow id="pt_bus_L9E:0" type="pt_bus" route="pt_bus_L9E:0" begin="14604.0" end="86604.0" period="600" line="L9E:0" >
        <param key="name" value="L9E Nassim - BD. Houphouët Boigny"/>
        <param key="completeness" value="1.00"/>
    </flow>
    <flow id="pt_bus_L301:0" type="pt_bus" route="pt_bus_L301:0" begin="14653.0" end="86653.0" period="600" line="L301:0" >