<?xml version="1.0" encoding="UTF-8"?>

<!-- generated on 2025-08-30 00:04:09.858922 by scenarioFromOSM.py UNKNOWN
  options: <doubleminus>osm H2ST9_cp.osm <doubleminus>out epH <doubleminus>population 25 <doubleminus>local-defaults <doubleminus>processes 5
-->

<tazs xmlns:xsi="http://www.w3.org/2001/XMLSchema-instance" xsi:noNamespaceSchemaLocation="http://sumo.dlr.de/xsd/taz_file.xsd">
    <!-- id="-4065" name="Hay salam" -->
    <taz id="-4065" edges="--361939#1 -360879#0 -363752#1 --363089#1 -360811#0 --361033#0 --363556 --360811#1 -361310#3 -364529#1 -364208#0 --364475#1 --361171#2 --363529 -362628#1 -361358 --361943 -364128#1 -360674#0 --364694#1 -361033#1 -363335#8 -363535 -361025 --361692#1 -364898#1 -360837 -362170#2 --362262#2 -360638#3 -363356#0 --364465#3 -360902#1 -364045#1 362613#6 --364235 -364099#0 -364027#1 --361477#2 -361785#0 -362897#1 --361939#0 --361785#5 -363931#1 --363201 --364902#0 -361713#0 -362796#0 -361843#2 -361170 -361843#1 --361465 --363791#2 -364607 -360779#1 -364085#5 --363384#0 --364568 -364101 -364927 --362655#0 -362548#1 -362384 -363752#3 -362636#2 -363373 -360901#4 -362106#1 361800 -364403#1 -360652 -360779#10 -363027#0 -364449#2 -362494#0 --362839#0 -362242#1 --362806#1 --363027#3 -363384#1 -364029#2 -363018#2 -362569 -361149 -362511#4 --361981 --364784#0 --362181#1 --362757 -362354#7 -364037#1 -360818#0 -362612#6 --364101 -362329#2 -362741 -362108#0 -364737#2 --364807#0 --363027#4 -362367#1 -361333#1 -364351 --363602 -360536#1 --363664 --364171 --360913#1 -364259#0 -363165#3 -360543#1 -363164#12 361620#3 -363065#6 -362460#2 -362403#0 -361843#3 -362644#0 -360902#2 -363356#1 --363924 -360613#0 -363941 --364349#3 --364250 -360966#1 -363791#2 -361275#4 -361927#1 --362841#0 --361939#3 --362133 -361531#1 -363642#0 -363926 -364306 --360682#1 --363334#1 --363626#0 -362298#2 -361499#0 --363137 -364814#0 -363387 -360843#1 -362223 -363313#0 -364737#0 -364272#2 -364084#3 --363120#0 --364396#1 -363335#2 -361925#1 -362650#1 --364354 --361442#2 -362011#1 -363959#1 -363860#1 -363388#2 -360992#0 -362011#0 -363603#1 -360832 -361734#1 -361190#1 -362544 --362612#4 --362329#1 --361843#2 -361692#1 --364465#2 -362100#1 -363405#1 --362918 -364792#3 -361640#1 -362485 -362820 -363120#2 --362122#2 --362181#2 -364197#2 --361843#4 -364289#5 --363246#0 --364607 -363474 -362932#0 --361218 -361260#1 -364465#2 -364869 -363137 --361395#1 -361912#0 361620#2 --361181#0 -364223 -362754#2 --362754#1 --364289#3 --361785#2 --363611#0 -363404 --363752#3 -360901#3 -364784#1 --361514 -360614#0 --362402#1 -362242#3 -364572#0 --363388#0 -362390#2 --362122#1 -364305#2 -363737#2 -361482 -360613#1 -362806#0 -363582#0 -364032#2 -361429#1 --362390#2 -362974 -363334#3 -363326#3 --362224#0 --362084 -364452 --362636#5 -362910#2 -364403#2 -363600 -360770#1 -360779#2 --361690 -360698 --360681#2 --361912#0 --362796#3 -362592#0 -361333#2 --363752#2 --364289#2 --361197 -362813#5 --361954#1 -363737#11 --361990 -363224#0 --364841#1 -364867 --360786 -362613#7 -364814#1 --361804#0 -364465#4 -363844#4 --363147#2 -362100#2 --361863 -360917#2 --363860#2 -363546#2 --361297#0 -361032#1 -361089#3 --362224#1 -363326#2 -360771#2 -361442#1 -361185 -363737#3 -361297#1 --364349#0 -364435#3 --361499#0 -360534 --360590#0 -362084 --362644#1 -363334#1 -364388 -364737#4 --360832 -363529 --364474#0 --360592#1 --362628#0 --363093 -363164#13 -363966#0 -361419#0 -362636#4 -362494#1 -362592#1 --363492#3 -364175#0 --363757 -361219#2 --361535#0 -364503#0 --360692#1 -364365 -363973#2 -362833 -364737#1 -361477#2 -360739 -361990 --362181#3 --363603#0 -361640#0 -363015#0 -364856 -360590#2 --360843#2 --361912#2 -360917#3 -362613#4 --362329#2 -363334#5 -361032#3 -362354#4 -364902#1 -360760#4 -363455#0 -363626#0 -361954#2 -362100#3 -363860#3 --362992 --364084#1 -360987 -363783 -362756#3 -360642#1 --363335#11 -360656#0 --360540 --361482 -362756#4 --363334#6 -364475#0 --364731#1 --363015#1 -361915#2 --361626#1 --361721#3 --360681#0 -362364 -360638#1 -361660#1 -360811#1 --364513#5 --362628#1 -362354#5 -364046#1 --361954#2 -364910#1 --360638#1 -362511#2 -363150#3 -363558 -364354 -360966#0 -362644#1 -362650#3 -361912#2 -363808#23 --363576 -362612#7 -363863#1 --363256 -363256 --364120 --364786 -362612#2 -362042#1 --363271#1 -364731#1 -362980#1 -363814 -363546#0 --364068#1 --361912#1 --363269 --364902#1 --363334#3 -364525#1 -363763#1 -363611#0 --364108#0 --361032#3 -360812 -362047#0 --361429#0 --364289#5 -361531#3 --362042#0 --360667#0 -362548#0 -363434#0 --363973#2 -362262#2 --362612#5 --363794#0 --364904#0 -362759 --363733 --362738 --360638#0 --361260#2 --363436#1 --362820 -360992#1 --363791#1 -363388#3 -364823#1 -363147#3 --363603#1 -362439#3 -360902#5 -363449#0 -363691#1 --363165#2 --364227 --360760#4 -361828#7 -362500 --364046#0 --362617 --360656#1 --361571#1 -362617 -362511#0 -364910#0 -361051#1 -363064#1 --360996#0 -364128#0 -361033#0 -362906#1 -361612#3 -362008#0 -362022 --363600 -360901#5 -362926#1 --362704#0 -361856#0 -363642#1 --362754#2 -362118#0 --364449#5 --362019#0 -361126#4 -363370 -362153 --364108#1 --363956 --364099#0 -363611#1 -360931 -363978 -362754#0 -363841 -361620#3 -362390#1 -364305#3 -363808#21 -364737#3 -361828#8 -363973#0 --362612#6 --362926#0 --363120#2 -361022 --363652#4 -363278 -362181#2 -363304#1 -364484 --360771#0 -364078 --360895#1 --363434#1 -364349#0 -363110#0 -362777#3 --363334#5 --363384#1 -363652#3 --360843#1 --363966#1 --363492#1 -360752#0 --361843#5 -361363#0 -364887#5 --361552 --364257 -363482 -361069 -363869#0 -361531#6 --363335#2 -360939#2 --360613#0 -364465#0 -363164#1 -361843#5 --360895#2 -363164#11 -362554 -362272 -361626#1 -363691#0 --363387 -362045#8 --361843#0 -364396#1 -360532#1 -364403#0 --363334#7 --361171#4 -363737#0 -362190 -361688 -363342 --360834 --363884#0 --361033#2 --360953#0 -360692#1 -364099#1 -364786 -360811#2 -361051#0 -362796#2 --362181#4 -363451#1 --361744#1 -364272#0 -360627#2 --360779#0 -362011#2 -364568 --362108#0 --363246#1 -361090#3 -363451#0 -364029#0 -363165#0 --361411#1 -360560#1 -361909 -360913#2 -362603#1 -361621#1 -362311#2 -360885#0 --364387#1 -361828#3 -362311#0 -362181#3 --360779#4 --364252 -362493 -364921#1 --363492#6 -361181#2 -364414#1 --363814 -363576 --361927#1 --364349#1 -364259#1 --362603#1 --362754#0 --362884#1 -362613#3 -363517#0 -363054 -363509 -363867 --361535#1 -364108#0 --364068#0 --364604 -362586#3 --363611#1 --361939#4 --360760#0 -363334#6 --361785#0 -361535#1 -362932#1 --360638#5 -360811#4 --364032#1 --361477#0 --364175#1 --364760#0 -363542#0 -364289#3 --362008#1 --362262#0 --362271 -361800 -360902#3 -364930 -362655#4 -363582#1 -361089#1 -360779#4 -362645 -362224#2 -363222#0 -361557 -363791#0 -364500 -360657#1 -364899 -361442#3 -360667#0 -361834 -364200#1 -363699#0 -362636#5 -361828#6 --362047#1 -362511#5 -363434#1 --363543 -362181#1 -361531#5 -364454 -360913#1 -363737#13 -361612#4 --361442#0 -363416#0 --364921#0 --364068#2 -360606 -360714#1 -364037#0 --360667#1 -362511#1 -364250 --362311#1 --362253#1 -362884#0 -364695 -364737#6 --362311#2 -364085#6 --360536#1 --360779#6 --361190#0 --361621#2 --362612#2 -361843#4 --363335#5 -362118#2 -363493 -363015#2 -363801 -363884#0 -360714#0 --364807#1 -361535#0 -364272#5 --360714#1 --364731#2 -364227 -360760#2 -362910#1 --360779#3 --364465#4 -363436#0 --364403#2 --363611#2 -361939#1 -364305#0 -363959#0 -361939#2 -361442#2 -360607#5 -361571#1 -361260#3 -360933 362613#7 --363869#1 --362806#0 -360692#0 -362613#2 --360913#0 -362181#0 -361535#2 --360768#0 -360765 --361612#2 --363752#0 -362448#3 --361171#0 -361477#3 --364365 -363335#5 -364737#8 --361442#1 --363860#1 -361219#1 --360681#1 --360590#1 -364525#2 -364475#1 --361025 -361089#0 -361197 --361927#0 --361089#2 -363150#2 --361033#1 -363018#1 --362337 -364234 --363222#1 --360885#1 -361660#2 --362655#4 --360752#1 --362311#0 --364205#1 -360953#1 --361856#0 --360885#0 --363147#3 -362897#5 --362704#1 -361939#3 --362644#0 -361411#1 -362109 -363165#1 -361552 -363222#1 -364033#0 -362655#1 -362910#4 -363212 -362839#0 --363165#0 -363992#2 --364175#2 -361499#1 -362612#8 -364449#4 -360895#1 -363794#2 -363164#5 -361804#0 --361219#1 -362813#4 --362924 -363335#10 --361181#3 --363843#0 -362253#0 --363230 --363492#4 --363794#1 -361951 --364814#1 --361323 -363065#0 -363582#4 --361692#2 --364175#0 -361756 -364430 --364223 --361219#0 -362134 -361621#2 -363808#22 -364084#1 -361032#2 --364717 --364387#5 -362224#0 --361194#0 --363863#1 -364887#3 -362813#2 -362112#0 --360812 --361804#1 --363464#0 --362884#0 --364465#1 --362811 --360760#1 -363065#3 -360613#2 --361429#1 --363566 --364351 -363015#1 --362063#0 --360953#1 --364403#1 -361126#3 --361688 -363384#0 --363966#2 -362704#0 -362300 --360811#0 -362728#1 -362613#0 --361927#2 --363335#6 --361612#3 -362884#1 -364387#2 --361181#2 --362636#1 -361939#6 --360760#3 --362628#2 -362170#1 -363905 -362202 --362646 --363807 -364289#1 -364032#3 -363118 -363543 -363165#2 -361831#1 -363400#1 -361181#0 -361660#0 -363326#4 --361089#3 --364046#1 -361692#2 --361051#1 -362592#2 -364186 --361612#4 --361219#2 -362655#3 -362916#0 --363118 -362271 -363246#1 --362011#1 -364737#10 --362253#2 -361714#0 -360627#0 -361620#4 --361171#3 --363878#3 -362100#0 -364146#1 --363417#0 -361089#2 --362122#0 -364175#2 -361531#2 --361445 --363370 -361927#2 --362063#1 -362813#3 -362262#0 --361477#3 -360760#0 -363027#2 -362122#0 -362292#0 -360811#3 -363484#0 --361442#3 -363733 -361171#4 --363040 -360895#2 --362494#1 --364037#1 -364693 -364046#0 -361032#0 --362253#0 --362906#1 -362448#6 -363956 -363164#0 362354#4 --364814#0 -363492#0 --363388#1 -361863 --361714#0 --364099#1 --362603#0 --361032#2 -364513#5 -362646 -363492#3 --362841#1 --360939#2 --362754#3 --361957#0 --363165#3 -363416#1 -364841#0 --363335#8 -364175#1 -364513#1 -364200#0 -360670 --363973#3 --363699#0 -361915#4 --360895#0 --364572#0 -361260#2 -364349#1 -362704#1 363926 -364183 -363546#1 --362926#1 -360590#1 -362019#1 -362757 -363335#3 -361218 -362402#1 -360592#1 --360811#2 --362008#0 --363212 -362129#1 -362380 -360768#1 --363362 -361744#1 -363089#1 -364604 -363335#9 --364186 --362351 --364205#0 --362494#0 --364234 --360638#3 -362650#2 --363699#1 --360692#0 --364387#0 -360560#2 --361513 -364029#1 --361051#0 -361713#1 -361915#0 --363359 -364208#1 --361052 --361571#0 -363335#6 --360811#3 -364068#1 --364452 -360865 -361010#0 -364449#6 --360592#0 -363931#0 -361734#0 --360779#11 -364387#5 --361185 --363884#1 -364694#0 -360901#0 -363417#1 -363335#11 -362628#2 -360638#0 --360637 -360681#1 -363492#2 --362106#1 --364475#0 -360895#0 -362897#3 -362839#1 --361571#2 -364084#0 -360818#1 -363417#0 -363794#1 --362380 -363696#0 -362728#0 -362756#0 --360987 --364921#1 -361785#1 --360811#5 -364731#0 -361828#4 --362403#0 -363973#4 -360770#0 --363860#3 -362112#1 -362902 --363554 --361621#0 --361939#6 -360667#1 -363150#1 -360540 --364449#4 -360779#5 --364628 --363165#1 -361219#0 -362354#8 -361785#4 -361310#1 -362655#2 -361981 --363464#1 --364693 --362675 -364465#3 --363326#3 --362980#1 -360592#0 -362837 -363808#25 -361954#1 -363737#1 -362612#4 --361411#2 -361297#0 --362224#3 -361954#0 -363807 --360996#2 -364289#4 -364252 -364807#1 -363844#2 -364769#1 -364468#1 --361535#2 -361395#0 --361939#5 --364449#2 -361052 -360902#6 --362063#2 -361181#3 -364792#0 -361843#0 -364197#0 -363120#1 -364197#5 -364760#0 -362775 -360681#0 --362087 -360555#1 --360996#1 --364867 --363752#1 -363664 -361621#0 -362910#0 -360614#3 --363326#7 --360590#2 -362133 -360902#4 --362364 -360996#2 --363860#4 --364814#3 -362008#1 --361677 --363652#5 -362108#1 -362173#2 -364438 --364289#4 --364146#1 -362242#2 -361804#1 --362011#2 -363150#4 -363164#9 --363416#1 --363436#0 -362603#2 -364474#1 --362401 --363404 --361089#0 --364349#2 -362777#1 -364369#1 -361126#0 -361395#1 --361647#1 -362122#1 -361513 -363737#4 -363662 -362811 --363863#0 --362655#2 --363626#1 -363611#2 -363147#1 -360607#2 --360937 -362756#2 -362910#3 362613#3 -360637 -363878#1 -363065#8 -363652#5 --363642#0 -364085#9 -362367#0 -361620#0 -362150 --363492#0 -362806#1 -361442#0 -361922#2 --364731#0 -362063#2 -363464#1 -363843#1 -360885#1 -361310#4 -363696#2 -364369#2 -361647#1 --364084#0 -360760#3 -364032#0 -364731#2 -362754#1 -362628#0 -364540 -363335#1 -364435#0 -364272#1 -362448#1 -360682#1 -361333#3 -360560#3 -364235 --362390#1 -364120 -360996#0 -363129#2 --360939#1 --364387#2 --364513#1 -362897#2 --360779#10 -360549#1 -360682#2 --360877#0 -364387#0 -362572#1 -362439#4 --361225 -363334#0 -362603#0 -364369#0 --360752#0 -361927#0 -364257 --364068#3 -363869#1 362613#4 -364511 --362011#0 --361171#1 --360638#4 --364027#0 -362853 -363120#0 -364449#5 -360569#2 --361260#3 362354#10 --363326#2 --361834 -362546 -362337 --361358 --360779#8 -362813#1 -362718 -364465#1 --361477#1 -364305#4 -361948 -362786 -360901#2 -364717 -364904#0 -363246#0 -362403#1 --363929 --363973#4 --361713#0 --363691#0 -360779#3 361620#1 -364387#1 -362511#7 --364841#0 -362019#0 -362918 -364197#1 --362282 -361310#2 -363844#0 -360953#0 -363844#5 -364474#0 -362402#0 -363359 -364068#4 -364289#2 --363434#0 -363808#24 -363603#0 --360560#3 --361032#0 --363120#1 -364016#0 --360560#2 -362675 --364695 -364814#3 -363018#0 --360613#1 -363652#4 -363860#2 -360656#1 -360937 -364027#0 -360546 -364116 -362173#1 -364349#3 --363532 361620#0 -362224#3 -360913#0 -361126#2 --363027#0 --360534 -361531#0 -360590#0 -360638#5 --363869#0 --364761 --361499#1 --364503#0 -362931 -364525#0 -363050 -362298#1 --362047#0 -360760#1 --362612#8 --364784#1 --360642#1 -361571#2 -361939#4 --361260#1 -363400#2 -362841#1 --363492#2 --363978 -363752#0 --364454 --362839#1 -360614#4 --363148 362354#8 --364823#1 --361491#0 -363757 -360771#0 --363222#0 --364465#0 -363808#20 --361922#2 -362650#0 --363018#2 --364387#4 -360922#0 -364146#2 -362042#0 -361090#1 -361310#0 -361957#1 --363791#0 --362173#1 -362967 -361126#1 -363089#0 -363973#3 -363201 -361533 --364503#2 --364084#3 --364449#6 --363867 -361190#0 -361429#0 --362298#2 -361171#0 -360877#1 -362924 -363566 -362916#1 --360877#1 -361171#1 -362329#3 -362756#1 --360560#1 -364898#0 --364474#1 -363532 -360786 --362202 -363542#1 -363356#2 --363206 --362548#1 --363388#3 -364047#0 -363794#0 -363211 --363388#2 -362927 -362129#0 --363342 -361785#5 --362636#4 --363326#1 -364769#0 -363863#0 -364045#0 -363269 --360543#1 -360976 -363147#2 364306 -362636#1 --362696 --360536#0 -362511#3 --361089#1 --363484#0 -360752#1 -364737#5 -364823#0 -362586#2 -363884#1 -364761 -362910#5 -362806#2 --363334#0 -362650#4 --362181#0 -360682#0 -363164#10 --362612#1 -362045#0 --362224#2 -363966#2 -361300#0 --361999 --363416#0 -362351 -364108#1 --363417#1 --361116#0 -363148 -360607#6 -364373 -364910#2 -361943 --360766 --360768#1 -360768#0 --364513#3 --363015#0 -362897#4 -364784#0 -360614#2 --363147#1 -364902#0 --364128#0 --363642#1 -364272#6 -361531#4 --360779#1 --363339#0 --360966#0 -363603#2 -363271#1 --362786 --362718 --360546 -363064#0 -362253#2 --360656#0 -362460#1 -363838 --361737 --363449#0 -364016#1 --364146#2 -361477#1 -363929 --364067 --360779#2 -361571#0 --362569 -364468#2 --360760#2 --364128#1 -361925#0 -361939#0 --362636#2 --360771#1 -360779#11 -364349#2 -362703 -364171 --360913#2 --362603#2 --363326#4 -363583#0 -364572#1 --361190#1 -363388#0 --364760#1 --363662 -361181#1 --361939#2 -361912#1 -360674#1 -363860#4 --364513#0 -363326#7 --362460#2 -362173#0 -362282 -364029#4 --363312 -364435#1 --362548#0 -361690 -362612#5 -364807#0 -361477#0 -360543#0 -360779#0 -361303 -360901#1 --363973#0 -362063#0 --360670 --362329#3 --364511 -361620#1 -362655#0 -360917#0 -364029#3 --362612#7 -364694#1 --363334#4 -363027#3 --363335#0 --362460#1 -363065#7 -361828#5 -363626#1 -361677 -362170#3 -361445 --364032#2 -362448#5 -361647#0 --364032#3 --362612#3 -360917#1 --363027#2 --360779#5 --362759 -363492#4 --361297#1 -360996#1 -363129#0 --363583#0 -364387#4 -364272#4 --363843#1 -363065#2 -360829 -363312 -361194#0 --364208#1 -361190#2 -361599#1 --363015#2 -361922#1 -364760#1 -362622 -363271#0 -364513#0 --361843#1 -364449#1 -363699#1 -364015 -362613#6 --363335#3 --363147#0 --362298#1 -362047#1 -363737#5 -362777#2 --362967 --364037#0 --362902 -362181#4 -364084#2 -363492#1 --364449#1 -362354#10 -364737#7 --364403#0 362613#8 --361181#1 -361743 --363603#2 --364823#0 -360549#2 -361915#3 -363582#2 -364205#0 --362546 -363027#4 --362223 --360714#0 -363335#0 --363535 --363335#9 -363304#2 -361419#1 -364904#1 --362402#0 --360779#7 --362837 --361922#1 --361032#1 --363966#0 --363335#1 --363841 -362063#1 --363018#0 -363752#2 -363843#0 --361948 --364027#1 -361333#0 -361323 --364033#0 -364628 -364085#7 --361647#0 --361957#1 -364841#1 -363924 -363400#3 -362813#7 -364146#0 -361090#0 -364305#1 -363334#7 --362298#3 --360865 -362511#6 --360811#4 --362019#1 -364818#1 -360614#1 --364146#0 -364887#4 -362253#1 -363147#0 -363878#3 -364068#3 -361957#0 --360739 -360811#5 -363326#6 -361033#2 -363672 -363556 --362703 -362841#0 --362906#0 --360682#0 --363326#0 -364326#0 -364456 -361411#2 --360771#2 --362655#3 -363763#0 -360771#1 --362173#0 -361300#1 --363517#0 -363065#5 --361395#0 -362612#1 -362612#3 -360638#4 --362796#0 -360691 --363672 -363326#0 --360613#2 --364388 -363992#0 -363464#0 -361922#0 -364737#9 --360976 --362190 --364904#1 -364513#3 -364205#1 --362272 -361999 -364921#0 -361010#1 --364456 --364694#0 --361954#0 -364197#4 -363707 -360939#1 --360829 --363335#7 --364068#4 -363602 --362796#2 -364513#4 --363271#0 --361713#1 --361843#3 -364068#0 -363492#6 -360902#0 --364183 --363691#1 --360779#9 --363801 -360536#0 -363230 -361620#2 --363326#6 --364597 -361737 -363696#1 -361531#7 --362173#2 -362106#2 -363065#4 -363362 --362042#1 -360555#0 --363794#2 -361171#3 --363860#0 --362806#2 -360657#2 --362403#1 -361939#5 -362329#1 -362448#4 -361491#0 -363065#1 --363018#1 -362926#0 -363582#3 --363335#10 -364272#3 -364067 -362224#1 -361225 --364078 --364438 -364068#2 -362572#0 --363652#3 --360682#2 -363844#3 -360779#9 --361491#1 -364792#1 -364926 -362992 -363860#0 --364856 -360779#6 -362613#8 -362439#0 -364597 --364032#0 -362401 -364032#1 -362298#3 -364468#3 --363509 --363089#0 -363326#1 -362813#6 --364289#1 -361531#8 -364414#0 -363334#4 -360779#7 -361171#2 -363791#1 -360843#2 --364899 -360589 -362754#3 --361621#1 -360657#0 -360834 -363335#7 -364503#2 --361922#0 -360627#1 --363278 --364208#0 --361911 -363455#2 -361116#0 --362655#1 --361785#4 -362738 -361543 -361491#1 --364572#1 --360966#1 -362311#1 -361465 -361363#1 --361785#1 --362109 -363455#1 --361190#2 -362796#3 -362439#1 -363966#1 -362087 -364047#1 -363000 -362439#2 --364084#2 -361785#2 --360543#0 -363436#1 -362906#0 -362122#2 --362108#1 -363093 -363388#1 --364529#1 -361911 -363129#1 -364887#2 -360779#8 -360877#0 -360766 -362696 --363878#1 -364197#3 -363554 -363206 --364513#4 -360681#2"/>
    <!-- id="-4069" name="Oulfa" -->