<?xml version="1.0" encoding="UTF-8"?>

<!-- generated on 2025-08-30 00:02:52 by Eclipse SUMO polyconvert Version c915cd253
<polyconvertConfiguration xmlns:xsi="http://www.w3.org/2001/XMLSchema-instance" xsi:noNamespaceSchemaLocation="http://sumo.dlr.de/xsd/polyconvertConfiguration.xsd">

    <input>
        <net-file value="osm.net.xml"/>
        <osm-files value="H2ST9_cp.osm"/>
    </input>

    <output>
        <output-file value="osm_polygons.add.xml"/>
    </output>

</polyconvertConfiguration>
-->

<additional xmlns:xsi="http://www.w3.org/2001/XMLSchema-instance" xsi:noNamespaceSchemaLocation="http://sumo.dlr.de/xsd/additional_file.xsd">
    <location netOffset="-601719.30,-3739778.87" convBoundary="-36.23,-6.10,4113.57,4230.63" origBoundary="-7.901399,33.793139,-7.856616,33.831294" projParameter="+proj=utm +zone=29 +ellps=WGS84 +datum=WGS84 +units=m +no_defs"/>

    <poly id="-360541" type="natural" color="140,196,107" fill="0" layer="-4.00" shape="3131.628860,2769.484029 3127.410242,2730.594686"/>
    <poly id="-360544" type="amenity" color="237,199,199" fill="1" layer="-1.00" shape="227.548674,1746.733003 243.750479,1705.896749 274.367914,1719.359850 255.635097,1764.868102 227.548674,1746.733003"/>
    <poly id="-360544#1" type="building" color="255,230,230" fill="1" layer="-1.00" shape="227.548674,1746.733003 243.750479,1705.896749 274.367914,1719.359850 255.635097,1764.868102 227.548674,1746.733003"/>
    <poly id="-360545" type="building" color="255,230,230" fill="1" layer="-1.00" shape="1334.727187,2862.987091 1348.447758,2862.704318 1348.119162,2846.878435 1334.398449,2847.172263 1334.727187,2862.987091"/>
    <poly id="-360548" type="building" color="255,230,230" fill="1" layer="-1.00" shape="2084.144320,303.346835 2070.479088,310.108591 2061.662769,292.443300 2072.758742,286.958269 2074.435035,290.315682 2077.004311,289.038949 2084.144320,303.346835"/>
    <poly id="-360554" type="building" color="255,230,230" fill="1" layer="-1.00" shape="2039.754527,205.032726 2037.231161,206.343146 2031.680763,195.690295 2036.736637,193.080614 2040.074377,199.463562 2044.739145,197.059709 2049.074158,205.388460 2041.876769,209.102627 2039.754527,205.032726"/>
    <poly id="-360557" type="building" color="255,230,230" fill="1" layer="-1.00" shape="2581.665171,2512.853462 2628.335840,2497.685864 2621.079257,2476.509853 2574.529360,2492.474908 2581.665171,2512.853462"/>
    <poly id="-360559" type="building" color="255,230,230" fill="1" layer="-1.00" shape="706.893991,630.072976 713.571267,616.091545 758.357011,637.282241 751.688939,651.263744 706.893991,630.072976"/>
    <poly id="-360561" type="building" color="255,230,230" fill="1" layer="-1.00" shape="2768.754983,905.530110 2777.860791,908.438373 2782.097069,895.282907 2772.991249,892.374637 2768.754983,905.530110"/>
    <poly id="-360565" type="leisure" color="207,245,201" fill="1" layer="-2.00" shape="2635.784383,2743.009157 2653.479825,2736.480432 2656.536696,2744.718133 2638.886574,2751.335806 2635.784383,2743.009157"/>
    <poly id="-360566" type="building" color="255,230,230" fill="1" layer="-1.00" shape="2895.733130,2108.607290 2901.066452,2116.914290 2929.970648,2096.301004 2924.000902,2088.628299 2895.733130,2108.607290"/>
    <poly id="-360570" type="parking" color="184,184,179" fill="1" layer="-1.00" shape="2557.416931,2750.015721 2560.844111,2757.278455 2567.678731,2754.386395 2566.315270,2750.161932 2565.201685,2746.819917 2557.416931,2750.015721"/>
    <poly id="-360571" type="building" color="255,230,230" fill="1" layer="-1.00" shape="1524.494698,511.573322 1543.120358,511.775050 1543.267529,498.187809 1524.641843,497.986082 1524.494698,511.573322"/>
    <poly id="-360575" type="building" color="255,230,230" fill="1" layer="-1.00" shape="1595.822728,3629.246432 1571.698148,3574.253335 1580.606828,3570.380553 1604.722114,3625.373571 1595.822728,3629.246432"/>
    <poly id="-360577" type="building" color="255,230,230" fill="1" layer="-1.00" shape="2507.986253,901.071988 2515.108094,877.145410 2515.800190,877.352001 2519.462130,865.041526 2530.905221,868.417385 2529.415379,873.431966 2532.848327,874.442513 2530.137873,883.556901 2527.849163,882.890569 2521.265629,904.998645 2507.986253,901.071988"/>
    <poly id="-360578" type="building" color="255,230,230" fill="1" layer="-1.00" shape="277.369326,1366.260547 283.243189,1368.424200 287.037053,1358.204114 281.163185,1356.040461 277.369326,1366.260547"/>
    <poly id="-360580" type="building" color="255,230,230" fill="1" layer="-1.00" shape="1606.584795,2811.200653 1618.308093,2817.563882 1621.631954,2811.507617 1609.908770,2805.133328 1606.584795,2811.200653"/>
    <poly id="-360588" type="building" color="255,230,230" fill="1" layer="-1.00" shape="1265.363460,1497.725214 1274.624190,1500.843802 1274.767814,1500.403082 1283.263012,1503.259099 1284.209499,1500.483010 1305.009238,1507.485669 1301.825422,1516.838491 1297.933005,1515.524883 1293.582645,1528.314828 1300.611202,1530.679562 1299.205831,1534.799623 1308.374191,1537.895133 1304.520809,1549.242002 1286.986413,1543.336092 1291.901042,1528.871605 1275.003016,1523.182671 1274.324193,1525.176619 1257.905806,1519.647700 1265.363460,1497.725214"/>
    <poly id="-360591" type="building" color="255,230,230" fill="1" layer="-1.00" shape="3041.408876,2949.537178 3042.878403,2953.102609 3045.267625,2952.155877 3043.899903,2948.591568 3041.408876,2949.537178"/>
    <poly id="-360593" type="building" color="255,230,230" fill="1" layer="-1.00" shape="618.503601,1722.706566 615.369891,1732.635083 601.761216,1728.386883 604.894912,1718.458359 618.503601,1722.706566"/>
    <poly id="-360596" type="building" color="255,230,230" fill="1" layer="-1.00" shape="1876.743890,1623.566358 1903.005932,1634.720763 1892.928230,1658.239668 1888.283909,1656.276339 1887.343868,1658.444317 1865.726087,1649.264325 1876.743890,1623.566358"/>
    <poly id="-360597" type="building" color="255,230,230" fill="1" layer="-1.00" shape="1099.965147,2650.326364 1125.822577,2653.325457 1124.771662,2662.358594 1114.112604,2661.115733 1112.838397,2671.970835 1115.648868,2672.288649 1114.608293,2681.222389 1096.590493,2679.126135 1099.965147,2650.326364"/>
    <poly id="-360598" type="building" color="255,230,230" fill="1" layer="-1.00" shape="986.004408,2741.100857 981.143030,2752.436968 965.847855,2745.936527 970.709218,2734.600411 986.004408,2741.100857"/>
    <poly id="-360600" type="building" color="255,230,230" fill="1" layer="-1.00" shape="2319.618554,178.604909 2301.039733,180.834702 2301.990468,188.739665 2290.503878,190.118085 2287.998160,169.436560 2321.642136,165.402995 2322.610044,173.429773 2319.040788,173.855213 2319.618554,178.604909"/>
    <poly id="-360601" type="leisure" color="207,245,201" fill="1" layer="-2.00" shape="3550.457692,2148.579932 3576.348617,2133.552181 3587.023991,2151.781398 3569.341146,2162.034772 3561.133219,2166.798059 3550.457692,2148.579932"/>
    <poly id="-360601#1" type="sport" color="79,230,125" fill="1" layer="-2.00" shape="3550.457692,2148.579932 3576.348617,2133.552181 3587.023991,2151.781398 3569.341146,2162.034772 3561.133219,2166.798059 3550.457692,2148.579932"/>
    <poly id="-360605" type="building" color="255,230,230" fill="1" layer="-1.00" shape="649.586033,473.114464 672.018640,492.118733 665.717839,499.492279 650.459982,486.568899 644.824889,493.164576 637.641009,487.072554 649.586033,473.114464"/>
    <poly id="-360608" type="building" color="255,230,230" fill="1" layer="-1.00" shape="1169.760470,2488.920529 1172.064957,2472.669772 1181.575481,2473.999796 1179.270859,2490.261606 1169.760470,2488.920529"/>
    <poly id="-360609" type="landuse" color="194,194,130" fill="1" layer="-3.00" shape="3362.526444,1162.805690 3381.538023,1172.402622 3399.564502,1137.009241 3381.803029,1125.701189 3391.443867,1107.762635 3371.932422,1098.149120 3352.602937,1139.211434 3356.614126,1158.295637 3362.526444,1162.805690"/>
    <poly id="-360610" type="landuse" color="194,194,130" fill="1" layer="-3.00" shape="3573.859373,2767.506474 3646.429321,2728.105883 3578.941645,2604.992692 3506.389714,2644.382962 3573.859373,2767.506474"/>
    <poly id="-360611" type="building" color="255,230,230" fill="1" layer="-1.00" shape="1669.117266,708.149897 1673.167507,694.085314 1678.123827,695.499058 1678.951236,692.622202 1692.528033,696.495626 1691.498666,700.066871 1687.585285,698.951907 1684.660437,709.125634 1680.977888,708.068459 1680.054311,711.275979 1669.117266,708.149897"/>
    <poly id="-360612" type="building" color="255,230,230" fill="1" layer="-1.00" shape="897.886156,3698.932273 902.994764,3689.511628 943.916189,3711.469269 938.807431,3720.900954 897.886156,3698.932273"/>
    <poly id="-360615" type="building" color="255,230,230" fill="1" layer="-1.00" shape="465.503854,1850.241189 431.724884,1854.567104 430.408498,1844.380745 436.257783,1843.625247 436.163790,1842.894492 447.380104,1841.466790 447.243862,1840.359651 463.948016,1838.216833 465.503854,1850.241189"/>
    <poly id="-360618" type="building" color="255,230,230" fill="1" layer="-1.00" shape="3201.113045,2316.683665 3184.612602,2326.386847 3171.471741,2302.514052 3186.456492,2294.275786 3201.113045,2316.683665"/>
    <poly id="-360622" type="building" color="255,230,230" fill="1" layer="-1.00" shape="1736.248678,1528.642996 1773.965805,1544.609489 1773.243958,1546.293344 1784.440156,1551.036696 1773.383825,1576.889140 1762.399586,1572.236559 1765.191996,1565.721230 1762.326142,1564.507028 1759.951572,1570.053893 1724.897711,1555.210991 1736.248678,1528.642996"/>
    <poly id="-360623" type="building" color="255,230,230" fill="1" layer="-1.00" shape="1581.663443,3166.606964 1594.731267,3164.172452 1597.111960,3176.792025 1584.044032,3179.237587 1581.663443,3166.606964"/>
    <poly id="-360629" type="building" color="255,230,230" fill="1" layer="-1.00" shape="3419.370322,696.886571 3418.860984,713.687441 3388.837179,712.781397 3389.346342,695.991582 3419.370322,696.886571"/>
    <poly id="-360630" type="building" color="255,230,230" fill="1" layer="-1.00" shape="959.173875,2131.006169 967.428356,2108.052728 977.009304,2111.473029 977.849069,2109.138038 994.862472,2115.203649 990.940391,2126.107615 973.622639,2119.939217 971.370733,2126.184161 989.490740,2132.637623 985.301409,2144.290573 966.831015,2137.711716 968.090894,2134.187113 959.173875,2131.006169"/>
    <poly id="-360631" type="building" color="255,230,230" fill="1" layer="-1.00" shape="1394.782730,4024.561126 1390.331617,4033.059868 1376.002117,4025.629305 1380.443966,4017.130458 1394.782730,4024.561126"/>
    <poly id="-360633" type="amenity" color="237,199,199" fill="1" layer="-1.00" shape="1927.552415,3244.898859 1929.161379,3235.683891 1944.136693,3238.279374 1942.527715,3247.494341 1927.552415,3244.898859"/>
    <poly id="-360635" type="building" color="255,230,230" fill="1" layer="-1.00" shape="1549.731162,2800.323395 1555.341273,2803.657038 1557.339663,2800.328482 1551.729551,2796.994836 1549.731162,2800.323395"/>
    <poly id="-360641" type="building" color="255,230,230" fill="1" layer="-1.00" shape="1033.312956,2294.804979 1042.964874,2298.491486 1047.564444,2286.566565 1037.921889,2282.869099 1033.312956,2294.804979"/>
    <poly id="-360646" type="building" color="255,230,230" fill="1" layer="-1.00" shape="1433.033963,2449.430823 1431.607105,2455.540861 1436.897758,2456.770168 1433.879040,2469.696092 1437.424727,2470.508464 1435.289069,2479.673568 1428.908809,2478.200268 1430.228705,2472.564518 1417.708213,2469.675816 1422.969513,2447.110490 1433.033963,2449.430823"/>
    <poly id="-360647" type="building" color="255,230,230" fill="1" layer="-1.00" shape="363.509570,1119.986369 367.754087,1129.076275 376.062441,1125.229051 371.817930,1116.139143 363.509570,1119.986369"/>
    <poly id="-360651" type="building" color="255,230,230" fill="1" layer="-1.00" shape="2566.510764,2868.973495 2598.182898,2831.151916 2621.928366,2893.374771 2566.510764,2868.973495"/>
    <poly id="-360660" type="water" color="181,209,209" fill="1" layer="-4.00" shape="2781.071540,2712.547883 2752.940648,2634.144525 2741.186651,2601.077159 2746.938949,2599.017314 2766.180498,2651.571647 2786.833036,2710.488162 2781.071540,2712.547883"/>
    <poly id="-360665" type="building" color="255,230,230" fill="1" layer="-1.00" shape="1504.186981,3901.489599 1511.385075,3887.193724 1525.340190,3894.167095 1526.399413,3892.077780 1541.155533,3899.435791 1538.195015,3905.308044 1523.439023,3897.938984 1518.142200,3908.451906 1504.186981,3901.489599"/>
    <poly id="-360666" type="building" color="255,230,230" fill="1" layer="-1.00" shape="1686.381823,3470.258735 1736.537184,3446.423064 1717.069259,3405.843035 1730.652488,3399.389623 1753.287960,3446.582925 1758.805032,3443.956048 1753.854557,3433.619389 1767.902900,3426.949946 1770.898616,3434.047830 1772.603494,3437.283900 1795.108258,3483.701911 1779.422552,3491.149614 1760.262830,3451.192017 1757.304305,3452.597262 1766.798376,3472.381624 1744.897823,3482.791432 1735.648303,3463.496249 1692.889294,3483.818753 1686.381823,3470.258735"/>
    <poly id="-360668" type="building" color="255,230,230" fill="1" layer="-1.00" shape="532.359897,1888.894209 548.214831,1896.008022 538.439325,1917.585487 544.151167,1920.145618 538.784435,1932.007248 518.562785,1922.933772 524.024309,1910.863070 522.780575,1910.307940 527.312966,1900.283834 532.359897,1888.894209"/>
    <poly id="-360669" type="residential" color="235,235,227" fill="1" layer="-3.00" shape="3127.748721,2631.716504 3096.565989,2581.053398 3178.777925,2535.154383 3206.987858,2589.290064 3127.748721,2631.716504"/>
    <poly id="-360671" type="building" color="255,230,230" fill="1" layer="-1.00" shape="1467.405306,2596.239767 1476.285136,2601.090393 1482.478981,2589.857401 1473.599263,2584.995716 1467.405306,2596.239767"/>
    <poly id="-360672" type="building" color="255,230,230" fill="1" layer="-1.00" shape="835.276808,1294.451942 846.710955,1299.517371 850.220692,1291.671642 838.786537,1286.606209 835.276808,1294.451942"/>
    <poly id="-360677" type="water" color="181,209,209" fill="1" layer="-4.00" shape="2739.587014,2597.543529 2707.663534,2506.173251 2713.139552,2503.988727 2745.636817,2595.365319 2739.587014,2597.543529"/>
    <poly id="-360678" type="building" color="255,230,230" fill="1" layer="-1.00" shape="1488.970059,3703.517640 1490.049119,3701.306908 1474.746412,3693.965179 1478.353486,3686.507723 1529.390136,3710.987940 1524.713217,3720.656206 1488.970059,3703.517640"/>
    <poly id="-360683" type="leisure" color="207,245,201" fill="1" layer="-2.00" shape="697.834709,3483.713883 731.204126,3422.298366 823.547969,3472.008507 790.187359,3533.423812 697.834709,3483.713883"/>
    <poly id="-360683#1" type="sport" color="79,230,125" fill="1" layer="-2.00" shape="697.834709,3483.713883 731.204126,3422.298366 823.547969,3472.008507 790.187359,3533.423812 697.834709,3483.713883"/>
    <poly id="-360684" type="building" color="255,230,230" fill="1" layer="-1.00" shape="1852.699722,2791.804035 1836.305134,2793.682375 1835.611356,2787.682020 1825.212974,2788.873697 1824.383605,2781.721957 1818.878513,2782.358702 1818.395913,2778.218193 1822.436660,2777.753498 1820.862293,2764.202798 1826.487833,2763.556306 1827.055050,2768.427486 1833.171709,2767.731053 1832.850059,2764.963346 1849.365252,2763.064194 1852.699722,2791.804035"/>
    <poly id="-360689" type="college" color="237,199,199" fill="1" layer="-2.00" shape="1635.508654,3402.480856 1627.048946,3406.756512 1592.499763,3469.726369 1591.482598,3473.905884 1592.198865,3476.987458 1593.943210,3480.002783 1597.042175,3482.712160 1760.959512,3571.066971 1786.869209,3529.841088 1787.008243,3522.158084 1792.383938,3517.207753 1794.910381,3517.235213 1796.921102,3516.173496 1803.392542,3506.635430 1852.491102,3451.475847 1864.656218,3431.595233 1866.989694,3425.539339 1867.672176,3414.699978 1884.808746,3317.287469 1761.385795,3361.466772 1657.428597,3412.459843 1635.508654,3402.480856"/>
    <poly id="-360690" type="building" color="255,230,230" fill="1" layer="-1.00" shape="1273.924818,1580.976075 1277.313073,1582.682274 1278.873809,1579.603231 1275.476297,1577.896933 1273.924818,1580.976075"/>
    <poly id="-360693" type="school" color="237,199,199" fill="1" layer="-2.00" shape="1621.208456,2475.949929 1632.713212,2474.338806 1631.827669,2468.082082 1620.323025,2469.682152 1621.208456,2475.949929"/>
    <poly id="-360693#1" type="building" color="255,230,230" fill="1" layer="-1.00" shape="1621.208456,2475.949929 1632.713212,2474.338806 1631.827669,2468.082082 1620.323025,2469.682152 1621.208456,2475.949929"/>
    <poly id="-360694" type="building" color="255,230,230" fill="1" layer="-1.00" shape="2614.303369,794.695978 2601.956424,797.767340 2589.943797,749.980790 2589.711765,750.033533 2588.141489,743.780280 2600.720652,740.645097 2614.303369,794.695978"/>
    <poly id="-360695" type="building" color="255,230,230" fill="1" layer="-1.00" shape="1478.925114,3396.304885 1474.672792,3404.363475 1466.684226,3400.185894 1462.082555,3408.882001 1470.973022,3413.533743 1466.853032,3421.339462 1474.933525,3425.573331 1478.741774,3418.350246 1486.573952,3422.437693 1491.695538,3412.741059 1483.808187,3408.619838 1487.814746,3401.034032 1478.925114,3396.304885"/>
    <poly id="-360696" type="building" color="255,230,230" fill="1" layer="-1.00" shape="1263.747878,2533.676840 1275.512497,2536.269690 1277.856814,2525.768934 1266.082927,2523.175984 1263.747878,2533.676840"/>
    <poly id="-360699" type="building" color="255,230,230" fill="1" layer="-1.00" shape="3279.714717,2591.893621 3304.913753,2578.184392 3313.162901,2593.146884 3309.354201,2595.216764 3329.140650,2631.657371 3315.851713,2638.918976 3295.665918,2601.755294 3287.582602,2606.177415 3279.714717,2591.893621"/>
    <poly id="-360702" type="tourism" color="207,245,201" fill="1" layer="-2.00" shape="839.088854,3570.758453 915.608383,3610.624441 964.253502,3519.719931 886.266126,3476.874534 839.088854,3570.758453"/>
    <poly id="-360703" type="building" color="255,230,230" fill="1" layer="-1.00" shape="2149.248923,2567.228139 2152.215961,2561.676772 2154.715832,2562.466951 2156.698409,2558.065823 2188.266093,2573.038309 2185.322067,2576.478054 2187.436074,2577.850050 2184.478276,2583.401509 2149.248923,2567.228139"/>
    <poly id="-360704" type="building" color="255,230,230" fill="1" layer="-1.00" shape="2413.819780,896.261367 2427.006513,860.371125 2439.759733,865.010612 2427.784462,897.630189 2432.616492,899.385739 2430.851173,904.198300 2425.677968,902.317396 2421.498663,913.693471 2412.157397,910.296479 2414.972128,902.642708 2408.378908,900.237684 2410.306415,894.984618 2413.819780,896.261367"/>
    <poly id="-360705" type="building" color="255,230,230" fill="1" layer="-1.00" shape="1611.179876,2588.101273 1623.452772,2595.023301 1627.585733,2587.770617 1615.312950,2580.837529 1611.179876,2588.101273"/>
    <poly id="-360707" type="building" color="255,230,230" fill="1" layer="-1.00" shape="1873.005374,2075.595959 1876.025879,2071.084435 1873.771794,2068.107750 1915.183291,2020.792473 1924.675766,2029.774370 1888.359506,2070.765207 1898.780056,2079.524975 1950.130776,2021.404826 1953.797930,1999.154113 1935.758883,1998.051200 1934.407666,2017.596069 1918.672159,2014.926064 1924.502869,1982.692422 1971.482330,1991.164467 1958.242885,2032.185063 1899.264685,2097.950959 1873.005374,2075.595959"/>
    <poly id="-360708" type="building" color="255,230,230" fill="1" layer="-1.00" shape="1085.559907,2848.685097 1100.298915,2851.807406 1102.316730,2842.375601 1087.577708,2839.253288 1085.559907,2848.685097"/>
    <poly id="-360715" type="building" color="255,230,230" fill="1" layer="-1.00" shape="3455.301497,1126.511920 3458.045897,1125.303830 3455.581439,1123.795008 3462.082551,1119.410813 3486.760761,1155.772918 3485.004148,1157.235153 3485.732098,1159.222372 3482.726912,1161.411645 3481.505550,1159.673285 3479.011210,1160.873074 3455.301497,1126.511920"/>
    <poly id="-360717" type="building" color="255,230,230" fill="1" layer="-1.00" shape="872.359694,634.981305 891.863856,645.573556 896.406389,637.274570 876.902214,626.682311 872.359694,634.981305"/>
    <poly id="-360718" type="building" color="255,230,230" fill="1" layer="-1.00" shape="1093.404802,3462.180400 1099.721937,3465.156545 1101.549812,3461.306388 1118.180669,3469.137278 1111.911130,3482.326722 1088.963282,3471.508647 1093.404802,3462.180400"/>
    <poly id="-360719" type="building" color="255,230,230" fill="1" layer="-1.00" shape="459.041388,1629.323597 462.747790,1630.723321 461.605873,1633.619011 472.232595,1637.989826 478.357890,1622.730803 467.536180,1618.413179 465.671064,1618.824392 463.918928,1619.922343 459.041388,1629.323597"/>
    <poly id="-360722" type="building" color="255,230,230" fill="1" layer="-1.00" shape="1922.952349,297.369500 1929.043540,295.755078 1927.940559,291.607830 1938.256542,288.878376 1941.708782,301.763954 1934.308439,303.717952 1936.007628,310.083050 1926.991563,312.472819 1922.952349,297.369500"/>
    <poly id="-360723" type="building" color="255,230,230" fill="1" layer="-1.00" shape="1473.466109,2976.671732 1473.180765,2985.923218 1472.681121,2985.906749 1472.408865,2994.804556 1459.871268,2994.414434 1460.428724,2976.276196 1473.466109,2976.671732"/>
    <poly id="-360724" type="building" color="255,230,230" fill="1" layer="-1.00" shape="1936.239504,2832.749427 1932.006609,2789.625850 1948.208917,2787.557616 1953.950433,2830.686565 1936.239504,2832.749427"/>
    <poly id="-360727" type="building" color="255,230,230" fill="1" layer="-1.00" shape="167.909219,1402.594316 175.513353,1405.705167 177.803716,1400.157042 170.199578,1397.046185 167.909219,1402.594316"/>
    <poly id="-360731" type="building" color="255,230,230" fill="1" layer="-1.00" shape="184.333625,1474.296193 190.964867,1454.973517 252.017521,1475.727785 250.497977,1480.178465 254.602606,1481.571310 252.089532,1488.897177 246.509101,1487.002046 247.884948,1483.003154 212.622224,1471.016321 212.316444,1471.908646 207.852109,1470.390349 208.922161,1467.283784 194.542148,1462.397697 193.060837,1466.738225 205.780619,1471.053713 204.863398,1473.719646 251.508307,1489.576479 249.186395,1496.340495 184.333625,1474.296193"/>
    <poly id="-360733" type="building" color="255,230,230" fill="1" layer="-1.00" shape="3501.251809,2814.558577 3489.448783,2792.889328 3532.135977,2770.506213 3543.459597,2792.833634 3501.251809,2814.558577"/>
    <poly id="-360742" type="building" color="255,230,230" fill="1" layer="-1.00" shape="1253.613645,2017.932243 1268.672457,2004.428755 1273.685381,2009.967122 1272.591814,2010.939362 1301.388724,2042.740501 1306.894298,2037.813400 1304.872673,2035.580175 1316.061611,2025.550993 1323.398093,2033.646527 1292.738106,2061.156100 1253.613645,2017.932243"/>
    <poly id="-360744" type="leisure" color="207,245,201" fill="1" layer="-2.00" shape="3051.116863,2936.220867 3046.999452,2925.981117 3042.233425,2914.119926 3073.558258,2904.668065 3101.610841,2934.354913 3092.686404,2937.020939 3076.434750,2941.884083 3064.985984,2932.536676 3051.116863,2936.220867"/>
    <poly id="-360748" type="building" color="255,230,230" fill="1" layer="-1.00" shape="3491.549815,1193.264468 3487.683232,1186.266995 3520.128950,1163.051857 3525.207394,1170.969394 3491.549815,1193.264468"/>
    <poly id="-360749" type="parking" color="184,184,179" fill="1" layer="-1.00" shape="3491.218911,965.753907 3448.532133,963.060406 3446.966623,970.694510 3490.022910,973.458426 3491.218911,965.753907"/>
    <poly id="-360751" type="building" color="255,230,230" fill="1" layer="-1.00" shape="2884.493320,2088.548318 2880.130004,2080.417831 2907.419680,2061.843333 2912.358906,2069.792189 2884.493320,2088.548318"/>
    <poly id="-360754" type="building" color="255,230,230" fill="1" layer="-1.00" shape="1839.775813,2703.814909 1857.910887,2702.773703 1857.092232,2688.678372 1838.957252,2689.708523 1839.775813,2703.814909"/>
    <poly id="-360755" type="building" color="255,230,230" fill="1" layer="-1.00" shape="534.819951,3035.278378 540.338116,3022.191077 592.077857,3043.798831 586.559631,3056.886102 534.819951,3035.278378"/>
    <poly id="-360756" type="building" color="255,230,230" fill="1" layer="-1.00" shape="1692.425470,3654.387818 1699.749728,3639.595879 1715.612070,3647.386326 1713.634346,3651.378487 1710.817197,3649.998951 1705.480020,3660.787763 1692.425470,3654.387818"/>
    <poly id="-360757" type="commercial" color="209,209,204" fill="1" layer="-3.00" shape="1791.440022,3645.777706 1783.018217,3661.055207 1763.273482,3650.270279 1771.695263,3634.992760 1791.440022,3645.777706"/>
    <poly id="-360758" type="building" color="255,230,230" fill="1" layer="-1.00" shape="359.303987,1111.582403 362.994157,1119.704430 371.729153,1115.784375 368.039107,1107.651291 359.303987,1111.582403"/>
    <poly id="-360761" type="building" color="255,230,230" fill="1" layer="-1.00" shape="397.389569,629.428324 468.645358,628.997741 468.727215,642.089847 462.653469,642.124250 462.666679,644.346805 397.484749,644.742980 397.389569,629.428324"/>
    <poly id="-360763" type="leisure" color="207,245,201" fill="1" layer="-2.00" shape="3507.800193,2173.053142 3521.287953,2165.462265 3535.443330,2190.452463 3521.534690,2198.436719 3507.800193,2173.053142"/>
    <poly id="-360763#1" type="sport" color="79,230,125" fill="1" layer="-2.00" shape="3507.800193,2173.053142 3521.287953,2165.462265 3535.443330,2190.452463 3521.534690,2198.436719 3507.800193,2173.053142"/>
    <poly id="-360769" type="building" color="255,230,230" fill="1" layer="-1.00" shape="584.437364,2863.225492 596.466545,2867.876922 591.259922,2881.243959 579.221382,2876.603490 584.437364,2863.225492"/>
    <poly id="-360772" type="building" color="255,230,230" fill="1" layer="-1.00" shape="1349.970291,2937.564509 1351.787503,2968.078922 1338.552329,2968.853439 1336.734956,2938.350081 1349.970291,2937.564509"/>
    <poly id="-360777" type="building" color="255,230,230" fill="1" layer="-1.00" shape="1412.419103,3030.885672 1428.587546,3039.585570 1433.252936,3031.000700 1417.084482,3022.300796 1412.419103,3030.885672"/>
    <poly id="-360781" type="building" color="255,230,230" fill="1" layer="-1.00" shape="1686.018614,3586.395985 1697.633915,3592.382245 1699.571625,3588.666071 1704.007945,3590.947732 1694.328298,3609.561874 1678.276817,3601.282911 1686.018614,3586.395985"/>
    <poly id="-360787" type="building" color="255,230,230" fill="1" layer="-1.00" shape="2516.578315,679.188342 2521.043859,693.301501 2501.906237,699.306212 2496.026990,680.699577 2496.816627,680.453903 2498.239684,684.936432 2516.578315,679.188342"/>
    <poly id="-360791" type="building" color="255,230,230" fill="1" layer="-1.00" shape="753.995346,1660.353789 758.346415,1650.007185 749.213382,1646.204950 754.448220,1633.733885 756.567868,1634.619106 757.897971,1631.449053 762.358584,1633.299278 760.496342,1637.746200 796.171672,1652.570086 794.566232,1656.378470 834.489844,1672.984126 834.670351,1672.554855 849.102523,1678.559226 850.261401,1675.818558 854.076783,1677.407573 847.692214,1692.619359 848.540088,1692.971248 844.378462,1702.910749 833.863161,1698.529655 834.005691,1698.188427 785.492810,1678.018539 787.117588,1674.132969 753.995346,1660.353789"/>
    <poly id="-360793" type="building" color="255,230,230" fill="1" layer="-1.00" shape="3546.037386,1031.754613 3556.223271,1033.238166 3552.858251,1088.120677 3541.848229,1085.820871 3546.037386,1031.754613"/>
    <poly id="-360797" type="building" color="255,230,230" fill="1" layer="-1.00" shape="592.989115,499.905615 599.480220,490.322709 613.332689,499.626408 606.841695,509.198251 592.989115,499.905615"/>
    <poly id="-360798" type="building" color="255,230,230" fill="1" layer="-1.00" shape="3742.811421,2925.775724 3729.863484,2931.503609 3735.952883,2944.983085 3739.674578,2943.244119 3742.900513,2950.334158 3748.193643,2947.949179 3745.111996,2941.203502 3749.037795,2939.422573 3742.811421,2925.775724"/>
    <poly id="-360800" type="building" color="255,230,230" fill="1" layer="-1.00" shape="1150.724316,2884.538238 1169.726089,2888.049450 1165.756504,2909.357311 1149.406048,2906.328063 1151.322037,2896.043795 1148.680132,2895.550877 1150.724316,2884.538238"/>
    <poly id="-360802" type="building" color="255,230,230" fill="1" layer="-1.00" shape="868.093288,2364.285717 851.239280,2361.505904 853.882005,2345.601492 870.736041,2348.381308 868.093288,2364.285717"/>
    <poly id="-360804" type="building" color="255,230,230" fill="1" layer="-1.00" shape="1287.895658,2830.924368 1289.216682,2861.123802 1274.853693,2861.753534 1273.532624,2831.554101 1287.895658,2830.924368"/>
    <poly id="-360805" type="amenity" color="237,199,199" fill="1" layer="-1.00" shape="3580.359977,1019.789281 3576.373162,1016.969954 3575.325872,1010.368468 3579.215096,1006.099237 3585.786389,1005.431020 3589.821026,1009.787788 3590.872887,1010.109003 3592.039712,1010.917991 3592.029452,1011.846657 3591.778514,1012.772665 3591.205052,1013.562428 3589.840264,1013.912228 3589.631920,1016.010738 3587.369020,1018.882649 3583.640660,1020.323084 3580.359977,1019.789281"/>
    <poly id="-360805#1" type="building" color="255,230,230" fill="1" layer="-1.00" shape="3580.359977,1019.789281 3576.373162,1016.969954 3575.325872,1010.368468 3579.215096,1006.099237 3585.786389,1005.431020 3589.821026,1009.787788 3590.872887,1010.109003 3592.039712,1010.917991 3592.029452,1011.846657 3591.778514,1012.772665 3591.205052,1013.562428 3589.840264,1013.912228 3589.631920,1016.010738 3587.369020,1018.882649 3583.640660,1020.323084 3580.359977,1019.789281"/>
    <poly id="-360806" type="leisure" color="207,245,201" fill="1" layer="-2.00" shape="3426.799283,2931.547975 3445.085415,2931.904636 3445.641790,2894.085050 3427.751110,2893.953894 3426.799283,2931.547975"/>