<?xml version='1.0' encoding='UTF-8'?>
<routes xmlns:xsi="http://www.w3.org/2001/XMLSchema-instance" xsi:noNamespaceSchemaLocation="http://sumo.dlr.de/xsd/routes_file.xsd"> 
    <vehicle id="-4094_-4105_3_tr" type="special" depart="triggered">
        <route edges="--363268#3 --363268#2 --363268#1 --363268#0 --361822#5 --361822#4 --361822#3 --361822#2 --361822#1 --361822#0 --363327 --364377#3 --364377#2 --364377#1 --364377#0 --363131#6 --363131#5 -363512#0 -363512#1 -363512#2 -363512#3 -364815#3 -364815#4 -364815#5 -364815#6 --363440#5 --363440#4 --363440#3 --363440#2 --363440#1 --363440#0 --364043#4 --364043#3 --364043#2 --364043#1 --364043#0 --361076#3 --361076#2 --361076#1 --360649#2 --360649#1 --360649#0 -363327 -361822#0 -361822#1 -361822#2 -361822#3 -361822#4 -361822#5 -363268#0 -363268#1 -363268#2 -363268#3 --363268#3" />
        <stop parkingArea="-1316088" triggered="true" expected="-4094_-4105_3" />
        <stop lane="--363268#3_1" duration="1.0" />
    </vehicle>
    <person id="-4094_-4105_3" type="pedestrian" depart="21652.09">
        <ride from="--363268#3" to="-364815#3" arrivalPos="25.56070289131272" lines="-4094_-4105_3_tr" />
        <walk edges="-364815#3 --360726#0 --360726#1 --360726#2 --360617#0 -362822" arrivalPos="20.91" />
        <stop duration="26453.5736578719" actType="P-Hospital" parkingArea="-1304967" />
        <walk edges="-362822 --360617#0 --360726#2 --360726#1 --360726#0 -364815#3" arrivalPos="25.56070289131272" />
        <ride from="-364815#3" to="--363268#3" arrivalPos="8.177716840137402" lines="-4094_-4105_3_tr" />
        <stop lane="--363268#3_0" duration="1.0" actType="Home" />
    </person>
    <vehicle id="-4111_-4105_2_tr" type="special" depart="triggered">
        <route edges="-362355#1 -362355#2 -362751 -361394#0 -361394#1 -361394#2 -361394#3 -361394#4 -361394#5 -361394#6 -361394#7 -362784#0 -362784#2 -362784#4 -362096#2 -362096#5 -362096#7 -362096#9 -362096#10 -362096#12 -362096#14 -362096#15 -362096#16 -362096#17 -362096#18 -362096#19 -362096#20 -362326#4 -363617#0 -363617#1 -363617#2 -363617#3 -363617#4 -361848#0 -361848#1 -361848#2 -362854#1 -362854#2 -362854#3 -364222#1 -364222#2 -364222#3 -364222#6 -364222#7 -364222#8 -364222#9 -364222#10 -364222#11 -364222#12 -364222#13 -363745#3 -363745#4 -363745#5 -361789#0 -361789#1 -362559#0 --364322#1 --364322#0 -364322#0 -364322#1 --362559#0 -361789#2 -361370#1 -361370#2 -363745#7 -363745#10 -363745#11 -363745#12 -360645#0 -360645#1 -364299#4 -364891 -361708#0 -361708#1 -361708#2 -361708#3 -360607#1 -360607#2 -360607#5 -360607#6 -362586#2 -362586#3 -360674#0 -360674#1 -364369#1 -364369#2 -362650#0 -362650#1 -362650#2 -363737#0 -363737#1 -363737#2 -363737#3 -363737#4 -363737#5 -363737#11 -363737#13 -364468#1 -364468#2 -364468#3 -362355#0 -362355#1" />
        <stop parkingArea="-1304967" triggered="true" expected="-4111_-4105_2" />
        <stop lane="-362355#1_1" duration="1.0" />
    </vehicle>
    <person id="-4111_-4105_2" type="pedestrian" depart="21871.7">
        <ride from="-362355#1" to="-364322#0" arrivalPos="16.840000000000003" lines="-4111_-4105_2_tr" />
        <walk edges="-364322#0 -364322#1 -362559#1 -362559#2 -363908#0 -363908#1 -361404#0" arrivalPos="28.975" />
        <stop duration="29470.53668534825" actType="P-Hospital" parkingArea="-1304967" />
        <walk edges="-361404#0 -363908#1 -363908#0 -362559#2 -362559#1 -364322#1 -364322#0" arrivalPos="16.840000000000003" />
        <ride from="-364322#0" to="-362355#1" arrivalPos="78.39141249857356" lines="-4111_-4105_2_tr" />
        <stop lane="-362355#1_0" duration="1.0" actType="Home" />
    </person>
    <vehicle id="-4065_-4105_2_tr" type="special" depart="triggered">
        <route edges="-360607#6 -362390#1 -362390#2 -363388#3 -362100#5 -362100#6 -362100#7 -362046#0 -362046#1 -362046#2 -362046#3 -364448#1 -362326#1 -362326#2 -362326#4 -363617#0 -363617#1 -363617#2 -363617#3 -363617#4 -361848#0 -361848#1 -361848#2 -362854#1 -362854#2 -362854#3 -364222#1 -364222#2 -364222#3 -364222#6 -364222#7 -364222#8 -364222#9 -364222#10 -364222#11 -364222#12 -364222#13 -363745#3 -363745#4 -363745#5 -361789#0 -361789#1 -362559#0 --364322#1 --364322#0 -364322#0 -364322#1 --362559#0 -361789#2 -361370#1 -361370#2 -363745#7 -363745#10 -363745#11 -363745#12 -360645#0 -360645#1 -364299#4 -364891 -361708#0 -361708#1 -361708#2 -361708#3 -360607#1 -360607#2 -360607#5 -360607#6" />
        <stop parkingArea="-1304967" triggered="true" expected="-4065_-4105_2" />
        <stop lane="-360607#6_1" duration="1.0" />
    </vehicle>
    <person id="-4065_-4105_2" type="pedestrian" depart="23369.57">
        <ride from="-360607#6" to="-364322#0" arrivalPos="16.840000000000003" lines="-4065_-4105_2_tr" />
        <walk edges="-364322#0 -364322#1 --362559#1" arrivalPos="58.065" />
        <stop duration="28066.032997432474" actType="P-Hospital" parkingArea="-1304967" />
        <walk edges="--362559#1 --364322#1 -364322#0" arrivalPos="16.840000000000003" />
        <ride from="-364322#0" to="-360607#6" arrivalPos="20.05202363814346" lines="-4065_-4105_2_tr" />
        <stop lane="-360607#6_0" duration="1.0" actType="Home" />
    </person>
    <vehicle id="-4094_-4105_1_tr" type="special" depart="triggered">
        <route edges="--361056#1 -364884#1 -364884#3 -364884#4 --361822#7 --361822#6 --361822#5 --361822#4 --361822#3 --361822#2 --361822#1 --361822#0 --363327 -360649#0 -360649#1 -360649#2 -361076#1 -361076#2 -361076#3 -361076#4 -361076#5 -361076#6 -361076#7 -361076#8 -361076#9 -361076#10 -361076#11 -361076#12 -361076#13 -362840#0 -362840#1 -362840#2 -362840#3 -362840#4 -362840#5 -362713#0 -361109 -362419#2 -362419#3 -362419#4 -362419#5 -362419#6 -363710 -364584#0 -364584#1 -361243 -363745#3 -363745#4 -363745#5 -361789#0 -361789#1 -362559#0 --364322#1 --364322#0 -364322#0 -364322#1 -362559#1 -362559#2 -363908#0 -363908#1 -361404#0 -361404#1 --361827#9 --361827#8 --361827#7 --361827#6 --361827#5 --361827#4 --361827#3 --361827#1 --362840#2 --362840#1 --362840#0 --361076#13 --361076#12 --361076#11 --361076#10 --361076#9 --361076#8 --361076#7 --361076#6 --361076#5 --361076#4 --361076#3 --361076#2 --361076#1 --360649#2 --360649#1 --360649#0 -363327 -361822#0 -361822#1 -361822#2 -361822#3 -361822#4 -361822#5 -363268#0 -363268#1 -363268#2 --364922 --362276 --361056#1" />
        <stop parkingArea="-1304967" triggered="true" expected="-4094_-4105_1" />
        <stop lane="--361056#1_1" duration="1.0" />
    </vehicle>
    <person id="-4094_-4105_1" type="pedestrian" depart="23481.65">
        <ride from="--361056#1" to="-364322#0" arrivalPos="16.840000000000003" lines="-4094_-4105_1_tr" />
        <walk edges="-364322#0 -364322#1 --362559#0 -361789#2 -362021#0 -362021#1 --363386#1 --363386#0 --362281#3 --362281#2 --362281#1 --362281#0 --362265#1 --361924#3 --361924#2" arrivalPos="11.395" />
        <stop duration="31187.389507757856" actType="P-Hospital" parkingArea="-1304967" />
        <walk edges="--361924#2 -364637 -363579#2 -361750#0 -361750#2 -361750#3 -361750#4 --363811#3 --363811#4 --362281#2 --362281#3 --363386#0 -360959#0 -361702 -362021#0 -361789#2 -362559#0 --364322#1 -364322#0" arrivalPos="16.840000000000003" />
        <ride from="-364322#0" to="--361056#1" arrivalPos="10.082022121579213" lines="-4094_-4105_1_tr" />
        <stop lane="--361056#1_0" duration="1.0" actType="Home" />
    </person>
    <vehicle id="-4065_-4105_5_tr" type="special" depart="triggered">
        <route edges="--364349#2 --363093 -364027#0 -364027#1 -360768#0 -360768#1 -364068#0 -364068#1 -364068#2 -364068#3 -364068#4 -361260#2 -361260#3 -364084#0 -364084#1 -364084#2 -364084#3 -363878#1 -363878#3 -363342 -361090#0 -361090#1 -361090#3 -361363#0 -361363#1 -363696#0 -363696#1 -363696#2 -360818#0 -360818#1 -362292#0 -362777#1 -362777#2 -362777#3 -363304#1 -363304#2 -362728#0 -362728#1 -362650#0 -362650#1 -362650#2 -362650#3 -362650#4 -360657#0 -360657#1 -360657#2 -363763#0 -363763#1 -362100#0 -362100#1 -362100#2 -362100#3 -362100#5 -362100#6 -362100#7 -362046#0 -362046#1 -362046#2 -362046#3 -364448#1 -362326#1 -362326#2 -362326#4 -363617#0 -363617#1 -363617#2 -363617#3 -363617#4 -361848#0 -361848#1 -361848#2 -362854#1 -362854#2 -362854#3 -364222#1 -364222#2 -364222#3 -364222#6 -364222#7 -364222#8 -364222#9 -364222#10 -364222#11 -364222#12 -364222#13 -363745#3 -363745#4 -363745#5 -361789#0 -361789#1 -362559#0 --364322#1 --364322#0 -364322#0 -364322#1 --362559#0 -361789#2 -361370#1 -361370#2 -363745#7 -363745#10 -363745#11 -363745#12 -360645#0 -360645#1 -364299#4 -364891 -361708#0 -361708#1 -361708#2 -361708#3 -360607#1 -360607#2 -360607#5 -360607#6 -362586#2 -362586#3 -363783 -360614#0 -360614#1 -360614#2 -360614#3 -360614#4 -363356#0 -363356#1 -363356#2 -364818#1 -362242#1 -362242#2 -362242#3 -362592#0 -362592#1 -362592#2 -364015 -361925#0 -361925#1 -361951 -363992#0 -363992#2 --363342 --363878#3 --363878#1 --364084#3 --364084#2 --364084#1 --364084#0 --361260#3 --361260#2 --364068#4 --364068#3 --364068#2 --364068#1 --364068#0 --360768#1 --360768#0 --362926#0 --364349#3 --364349#2" />
        <stop parkingArea="-1304967" triggered="true" expected="-4065_-4105_5" />
        <stop lane="--364349#2_1" duration="1.0" />
    </vehicle>
    <person id="-4065_-4105_5" type="pedestrian" depart="23493.63">
        <ride from="--364349#2" to="-364322#0" arrivalPos="16.840000000000003" lines="-4065_-4105_5_tr" />
        <walk edges="-364322#0 -364322#1 -362559#1 -362559#2 -363908#0 -362286 --363041#1 -363041#0" arrivalPos="58.43" />
        <stop duration="29112.685537680973" actType="P-Hospital" parkingArea="-1304967" />
        <walk edges="-363041#0 --363041#1 -362286 -363908#0 -362559#2 -362559#1 -364322#1 -364322#0" arrivalPos="16.840000000000003" />
        <ride from="-364322#0" to="--364349#2" arrivalPos="17.942008561080982" lines="-4065_-4105_5_tr" />
        <stop lane="--364349#2_0" duration="1.0" actType="Home" />
    </person>
    <vehicle id="-4069_-4105_6_tr" type="special" depart="triggered">
        <route edges="--364185 -363631#6 --364292 --361866#1 --361866#0 -361284#2 -360636#8 -360636#9 -360636#10 -360636#11 -360636#12 -360636#13 -362346#0 -362346#1 -362379#0 -362379#1 -362379#2 -362379#3 -362379#4 -362379#5 -362379#6 -362295#1 -362295#3 --364750 --363078#0 -364519#2 -360736 -360948#0 -360948#1 -362326#1 -362326#2 -362326#4 -363617#0 -363617#1 -363617#2 -363617#3 -363617#4 -361848#0 -361848#1 -361848#2 -362854#1 -362854#2 -362854#3 -364222#1 -364222#2 -364222#3 -364222#6 -364222#7 -364222#8 -364222#9 -364222#10 -364222#11 -364222#12 -364222#13 -363745#3 -363745#4 -363745#5 -361789#0 -361789#1 -362559#0 --364322#1 --364322#0 -364322#0 -364322#1 --362559#0 -361789#2 -361370#1 -361370#2 -363745#7 -363745#10 -363745#11 -363745#12 -360645#0 -360645#1 -362465#0 -362465#1 -362465#2 -362465#3 -362465#4 -362465#5 -362465#6 -362465#7 -362465#8 -362465#9 -362465#10 -362465#11 -361015#0 -361015#1 -361015#2 -361015#3 -361015#4 -362547#0 -362547#1 -364131#1 -364131#2 -361284#0 -361284#1 -361866#0 --364185" />
        <stop parkingArea="-1304967" triggered="true" expected="-4069_-4105_6" />
        <stop lane="--364185_1" duration="1.0" />
    </vehicle>
    <person id="-4069_-4105_6" type="pedestrian" depart="24109.61">
        <ride from="--364185" to="-364322#0" arrivalPos="16.840000000000003" lines="-4069_-4105_6_tr" />
        <walk edges="-364322#0 -364322#1 --362559#0" arrivalPos="22.655" />
        <stop duration="27623.451333064255" actType="P-Hospital" parkingArea="-1304967" />
        <walk edges="--362559#0 -364322#1 -364322#0" arrivalPos="16.840000000000003" />
        <ride from="-364322#0" to="--364185" arrivalPos="55.839251825063414" lines="-4069_-4105_6_tr" />
        <stop lane="--364185_0" duration="1.0" actType="Home" />
    </person>
    <vehicle id="-4069_-4105_1_tr" type="special" depart="triggered">
        <route edges="-363763#1 -362100#0 -362100#1 -362100#2 -362100#3 -362100#5 -362100#6 -362100#7 -362046#0 -362046#1 -362046#2 -362046#3 -364448#1 -362326#1 -362326#2 -362326#4 -363617#0 -363617#1 -363617#2 -363617#3 -363617#4 -361848#0 -361848#1 -361848#2 -362854#1 -362854#2 -362854#3 -364222#1 -364222#2 -364222#3 -364222#6 -364222#7 -364222#8 -364222#9 -364222#10 -364222#11 -364222#12 -364222#13 -363745#3 -363745#4 -363745#5 -361789#0 -361789#1 -362559#0 --364322#1 --364322#0 -364322#0 -364322#1 --362559#0 -361789#2 -361370#1 -361370#2 -363745#7 -363745#10 -363745#11 -363745#12 -360645#0 -360645#1 -364299#4 -364891 -361708#0 -361708#1 -361708#2 -361708#3 -360607#1 -360607#2 -360607#5 -360607#6 -362586#2 -362586#3 -360674#0 -360674#1 -364369#1 -364369#2 -362650#0 -362650#1 -362650#2 -362650#3 -362650#4 -360657#0 -360657#1 -360657#2 -363763#0 -363763#1" />
        <stop parkingArea="-1304967" triggered="true" expected="-4069_-4105_1" />
        <stop lane="-363763#1_1" duration="1.0" />
    </vehicle>
    <person id="-4069_-4105_1" type="pedestrian" depart="24398.07">
        <ride from="-363763#1" to="-364322#0" arrivalPos="16.840000000000003" lines="-4069_-4105_1_tr" />
        <walk edges="-364322#0 -364322#1 --362559#0 -361789#2 -362021#0 -362021#1 --363386#1 --363386#0 --362281#3 --362281#2 --362281#1 --362281#0 --362265#1 -364900#0 -361461" arrivalPos="8.5" />
        <stop duration="29363.592991081787" actType="P-Hospital" parkingArea="-1304967" />
        <walk edges="-361461 -364900#0 --362265#1 --362281#0 --362281#1 --362281#2 --362281#3 --363386#0 -360959#0 -361702 -362021#0 -361789#2 -362559#0 --364322#1 -364322#0" arrivalPos="16.840000000000003" />
        <ride from="-364322#0" to="-363763#1" arrivalPos="71.09215914283571" lines="-4069_-4105_1_tr" />
        <stop lane="-363763#1_0" duration="1.0" actType="Home" />
    </person>
    <vehicle id="-4105_-4105_1_tr" type="special" depart="triggered">
        <route edges="--361461 --361384#1 --361384#0 -361002#1 -362155#1 -362638 -362265#1 -362281#0 -362281#1 -362281#2 -362281#3 -364547 -361949#0 -361252#4 --363586 --362559#1 --364322#1 --364322#0 -364322#0 -364322#1 --362559#0 -361789#2 -362021#0 -362021#1 --363386#1 --363386#0 --362281#3 --362281#2 --362281#1 --362281#0 --362265#1 -364900#0 --361461" />
        <stop parkingArea="-1304967" triggered="true" expected="-4105_-4105_1" />
        <stop lane="--361461_1" duration="1.0" />
    </vehicle>
    <person id="-4105_-4105_1" type="pedestrian" depart="25140.25">
        <ride from="--361461" to="-364322#0" arrivalPos="16.840000000000003" lines="-4105_-4105_1_tr" />
        <walk edges="-364322#0 -364322#1 --362559#0 -361789#2 -362021#0 -362021#1 --363386#1 --360959#1 --360959#2 --360959#3 --360959#4 --361019#2 --361019#4 --361019#5 --361019#6 --361754#0 -363909#0 -363909#1 -363909#2 -363909#3 -363909#4 -363909#5 --364759#1 --364759#0 --361931#0 -361144#1 -361144#2 -361144#3 -361144#4 -361144#5 --364166#5 --364166#6 --364166#7 -364166#8" arrivalPos="8.72" />
        <stop duration="26933.352710427396" actType="P-Hospital" parkingArea="-1304967" />
        <walk edges="-364166#8 -364166#7 -364166#6 -364166#5 --361144#5 --361144#4 --361144#3 --361144#2 --361144#1 --361144#0 --363644 --363909#5 --363909#4 --363909#3 --363909#2 --363909#1 --363909#0 --361754#0 --361019#6 --361019#5 --361019#4 --361019#2 -360959#4 -360959#3 -360959#2 -360959#1 -360959#0 -361702 -362021#0 -361789#2 -362559#0 --364322#1 -364322#0" arrivalPos="16.840000000000003" />
        <ride from="-364322#0" to="--361461" arrivalPos="9.945272555714917" lines="-4105_-4105_1_tr" />
        <stop lane="--361461_0" duration="1.0" actType="Home" />
    </person>
    <vehicle id="-4105_-4105_2_tr" type="special" depart="triggered">
        <route edges="--364593 --362294#4 --362805#1 --363131#1 --363131#0 -363440#0 -363440#1 -363440#2 -363440#3 -363440#4 -363440#5 -363440#7 -363440#8 -363440#9 -363440#10 -363440#11 -363440#12 -363440#13 -363440#14 -361967#0 -360576#0 --363503#2 --363503#1 --363503#0 --363859 --363605 --360576#1 --360576#0 -361591#4 --363440#14 --363440#13 --363440#12 --363440#11 --363440#10 --363440#9 --363440#8 --363440#7 --363440#5 --363440#4 --363440#3 --363440#2 --363440#1 --363440#0 -363131#0 --364593" />
        <stop parkingArea="-1303348" triggered="true" expected="-4105_-4105_2" />
        <stop lane="--364593_1" duration="1.0" />
    </vehicle>
    <person id="-4105_-4105_2" type="pedestrian" depart="25913.08">
        <ride from="--364593" to="--363503#1" arrivalPos="12.5" lines="-4105_-4105_2_tr" />
        <walk edges="--363503#1 --363503#2 --364213#0 -364366" arrivalPos="62.78" />
        <stop duration="27088.236627332193" actType="P-Hospital" parkingArea="-1304967" />
        <walk edges="-364366 --363557#3 -360576#1 --363503#2 --363503#1" arrivalPos="12.5" />
        <ride from="--363503#1" to="--364593" arrivalPos="16.855153384633233" lines="-4105_-4105_2_tr" />
        <stop lane="--364593_0" duration="1.0" actType="Home" />
    </person>
    <vehicle id="-4105_-4105_4_tr" type="special" depart="triggered">
        <route edges="-361082#4 -361703 -362465#5 -362465#6 -362465#7 -362465#8 -362465#9 -362465#10 -362465#11 -361015#0 -361015#1 -361015#2 -361015#3 -361015#4 -362547#0 -362547#1 -364131#1 -364131#2 --364379 -364576#1 --361367 --362661#2 --362661#1 --362661#0 -364302#1 -364302#2 -361298#0 -361298#1 -361298#2 -361012#0 -361012#1 -364519#0 -364519#1 -364519#2 -360736 -360948#0 -360948#1 -362465#0 -362465#1 -362465#2 --363701#1 --363701#0 -361082#4" />
        <stop parkingArea="-1311239" triggered="true" expected="-4105_-4105_4" />
        <stop lane="-361082#4_1" duration="1.0" />
    </vehicle>
    <person id="-4105_-4105_4" type="pedestrian" depart="25997.97">
        <ride from="-361082#4" to="--362661#2" arrivalPos="144.54" lines="-4105_-4105_4_tr" />
        <walk edges="--362661#2 --362661#1 --362661#0 -364302#1" arrivalPos="44.22" />
        <stop duration="27541.417631314347" actType="P-Hospital" parkingArea="-1304967" />
        <walk edges="-364302#1 --362661#0 --362661#1 --362661#2" arrivalPos="144.54" />
        <ride from="--362661#2" to="-361082#4" arrivalPos="14.995207488397782" lines="-4105_-4105_4_tr" />
        <stop lane="-361082#4_0" duration="1.0" actType="Home" />
    </person>
    <vehicle id="-4111_-4105_3_tr" type="special" depart="triggered">
        <route edges="-362173#1 --360877#0 -364760#1 -364099#0 --361692#2 --361692#1 -361828#4 -361828#5 -361828#6 -361828#7 -361828#8 -361831#1 -360549#1 -360549#2 -364818#1 -362932#0 -362932#1 -363400#1 -363400#2 -363400#3 -363400#4 -363400#5 -363400#6 -363400#7 -363400#8 -363400#9 -360824#1 -362254#0 -362254#1 -362254#2 -363864#1 -363864#2 -363864#3 -363864#4 -364576#1 -364576#2 -364812#0 -361157 -364302#0 -364302#1 -364302#2 -364091#1 -364091#2 -364091#3 -364091#4 -364162#1 -364162#2 -364162#4 -364162#5 -364815#0 -364815#1 -364815#2 -364815#3 -364815#4 -364815#5 -364815#6 -363440#7 -363440#8 -363440#9 -363440#10 -363440#11 -363440#12 -363440#13 -363440#14 -361967#0 -364519#0 -364519#1 -364519#2 -360736 -363010#0 -363010#1 -364891 -361708#0 -361708#1 -361708#2 -361708#3 -360607#1 -360607#2 -360607#5 -360607#6 -362586#2 -362586#3 -363783 -360614#0 -360614#1 -360614#2 -360614#3 -360614#4 -363356#0 -363356#1 -363356#2 -364887#2 -364887#3 -364887#4 -364887#5 -362813#1 -362813#2 -362813#3 -362813#4 -362813#5 -362813#6 -362173#0 -362173#1" />
        <stop parkingArea="-1316088" triggered="true" expected="-4111_-4105_3" />
        <stop lane="-362173#1_1" duration="1.0" />
    </vehicle>
    <person id="-4111_-4105_3" type="pedestrian" depart="26028.17">
        <ride from="-362173#1" to="-364815#3" arrivalPos="25.56070289131272" lines="-4111_-4105_3_tr" />
        <walk edges="-364815#3 --360726#0 --360726#1 --360726#2 --360617#0 --360617#2 -360735#3 -360954#3" arrivalPos="27.94" />
        <stop duration="29446.551896164834" actType="P-Hospital" parkingArea="-1304967" />
        <walk edges="-360954#3 -360954#1 -362934#0 -360617#0 -360726#2 -360726#1 -360726#0 -364815#3" arrivalPos="25.56070289131272" />
        <ride from="-364815#3" to="-362173#1" arrivalPos="36.631201411891" lines="-4111_-4105_3_tr" />
        <stop lane="-362173#1_0" duration="1.0" actType="Home" />
    </person>
    <vehicle id="-4105_-4105_0_tr" type="special" depart="triggered">
        <route edges="--362424#3 --362424#2 --362424#1 -364815#5 -364815#6 --363440#5 --363440#4 --363440#3 --363440#2 --362570#3 --362570#2 --362570#1 --362570#0 -362570#0 -362570#1 -362570#2 -362570#3 -363440#2 -363440#3 -363440#4 -363440#5 -363527#6 -362424#1 -362424#2" />
        <stop parkingArea="-1313714" triggered="true" expected="-4105_-4105_0" />
        <stop lane="-362424#2_1" duration="1.0" />
    </vehicle>
    <person id="-4105_-4105_0" type="pedestrian" depart="26163.04">
        <ride from="--362424#3" to="-362570#3" arrivalPos="91.71" lines="-4105_-4105_0_tr" />
        <walk edges="-362570#3 --362570#2 --362570#1 --363539 -362294#2 -363512#1" arrivalPos="10.49" />
        <stop duration="26231.59025383735" actType="P-Hospital" parkingArea="-1304967" />
        <walk edges="-363512#1 --362294#2 --363539 --362570#1 --362570#2 -362570#3" arrivalPos="91.71" />
        <ride from="-362570#3" to="-362424#2" arrivalPos="26.08" lines="-4105_-4105_0_tr" />
        <walk edges="--362424#3" arrivalPos="8.963758527637268" />
        <stop lane="--362424#3_0" duration="1.0" actType="Home" />
    </person>
    <vehicle id="-4094_-4105_4_tr" type="special" depart="triggered">
        <route edges="-362723#4 -363851#0 -363851#1 -363851#2 -363851#4 -363851#5 -363851#6 -361827#0 --362840#2 --362840#1 --362840#0 --361076#13 --361076#12 --361076#11 --361076#10 --361076#9 --361076#8 --361076#7 --361076#6 --361076#5 --361076#4 -364043#0 -364043#1 -364043#2 -364043#3 -364043#4 -363440#0 -363440#1 -363440#2 -363440#3 -363440#4 -363440#5 -363440#7 -363440#8 -363440#9 -363440#10 -363440#11 -363440#12 -363440#13 -363440#14 -361967#0 -360576#0 -360576#1 -363160#0 -363160#1 -364929#1 -364929#3 -364929#4 -363500#0 -364382#0 --361373#4 --361373#3 --361373#2 -364667 --361788 --364658 --363019 --364244 --362619#10 --362619#9 --362619#8 --362619#6 --362619#4 --362619#3 --362619#1 -361012#0 -361012#1 -361591#4 --363440#14 --363440#13 --363440#12 --363440#11 --363440#10 --363440#9 --363440#8 --363440#7 --363440#5 --363440#4 --363440#3 --363440#2 --363440#1 --363440#0 --364043#4 --364043#3 --364043#2 --364043#1 --364043#0 -361076#4 -361076#5 -361076#6 -361076#7 -361076#8 -361076#9 -361076#10 -361076#11 -361076#12 -361076#13 -362840#0 -362840#1 -362840#2 -362840#3 --362522#3 --362522#2 --362522#1 --362522#0 --362350#5 --362350#4 --362350#3 --362350#2 --362350#1 --362350#0 -362723#3 -362723#4" />
        <stop parkingArea="-1314714" triggered="true" expected="-4094_-4105_4" />
        <stop lane="-362723#4_1" duration="1.0" />
    </vehicle>
    <person id="-4094_-4105_4" type="pedestrian" depart="26509.85">
        <ride from="-362723#4" to="-364667" arrivalPos="38.54" lines="-4094_-4105_4_tr" />
        <walk edges="-364667 -361373#1 -361373#0 --361706#0 --361706#1 -362619#9 -362619#8 -362619#6 -362619#4 -362475#0" arrivalPos="17.02" />
        <stop duration="30058.56754927569" actType="P-Hospital" parkingArea="-1304967" />
        <walk edges="-362475#0 -362619#4 -362619#6 -362619#8 -362619#9 --361706#1 -361706#0 --361373#0 --361373#1 -364667" arrivalPos="38.54" />
        <ride from="-364667" to="-362723#4" arrivalPos="12.523492349383398" lines="-4094_-4105_4_tr" />
        <stop lane="-362723#4_0" duration="1.0" actType="Home" />
    </person>
    <vehicle id="-4065_-4105_1_tr" type="special" depart="triggered">
        <route edges="-362224#1 -362224#2 -362224#3 --361181#1 --361181#0 --361981 --363699#1 -361499#0 -361499#1 -361626#1 -361626#2 -362568 -363143 -360783#0 -360783#1 -360783#2 -360783#4 -361009#0 -361009#1 -361009#2 -360824#0 -360824#1 -362254#0 -362254#1 -362254#2 -360636#8 -360636#9 -360636#10 -360636#11 -360636#12 -360636#13 -362346#0 -362346#1 -362379#0 -362379#1 -362379#2 -362379#3 -362379#4 -362379#5 -362379#6 -362295#1 -362295#3 --364750 --363078#0 -364519#2 -360736 -360948#0 -360948#1 -362326#1 -362326#2 -362326#4 -363617#0 -363617#1 -363617#2 -363617#3 -363617#4 -361848#0 -361848#1 -361848#2 -362854#1 -362854#2 -362854#3 -364222#1 -364222#2 -364222#3 -364222#6 -364222#7 -364222#8 -364222#9 -364222#10 -364222#11 -364222#12 -364222#13 -363745#3 -363745#4 -363745#5 -361789#0 -361789#1 -362559#0 --364322#1 --364322#0 -364322#0 -364322#1 --362559#0 -361789#2 -361370#1 -361370#2 -363745#7 -363745#10 -363745#11 -363745#12 -360645#0 -360645#1 -362465#0 -362465#1 -362465#2 -362465#3 -362465#4 -362465#5 -362465#6 -362465#7 -362465#8 -362465#9 -362465#10 -362465#11 -361015#0 -361015#1 -361015#2 -361015#3 -361015#4 -362547#0 -362547#1 -364131#1 -364131#2 -361284#0 -361284#1 -361284#2 -363039#0 -363039#1 -363039#2 -361432 -363834 -361009#0 -363844#0 -363844#2 -363844#3 -363733 -361843#1 -361843#2 -361843#3 -361843#4 -362224#0 -362224#1" />
        <stop parkingArea="-1304967" triggered="true" expected="-4065_-4105_1" />
        <stop lane="-362224#1_1" duration="1.0" />
    </vehicle>
    <person id="-4065_-4105_1" type="pedestrian" depart="26702.53">
        <ride from="-362224#1" to="-364322#0" arrivalPos="16.840000000000003" lines="-4065_-4105_1_tr" />
        <walk edges="-364322#0 -364322#1 --362559#0 -361789#2 -362021#0 -362021#1 --363386#1 --363386#0 --362281#3 --362281#2 --362281#1 --362281#0 --362265#1 --361924#3 --361924#2 --361924#1 --361924#0 --363933#6 --363933#5" arrivalPos="18.395" />
        <stop duration="28847.762759208083" actType="P-Hospital" parkingArea="-1304967" />
        <walk edges="--363933#5 --363933#6 --361924#0 --361924#1 --361924#2 -364637 -363579#2 -361750#0 -361750#2 -361750#3 -361750#4 --363811#3 --363811#4 --362281#2 --362281#3 --363386#0 -360959#0 -361702 -362021#0 -361789#2 -362559#0 --364322#1 -364322#0" arrivalPos="16.840000000000003" />
        <ride from="-364322#0" to="-362224#1" arrivalPos="7.920243582186703" lines="-4065_-4105_1_tr" />
        <stop lane="-362224#1_0" duration="1.0" actType="Home" />
    </person>
    <vehicle id="-4101_-4105_6_tr" type="special" depart="triggered">
        <route edges="-362096#5 -362096#7 -362096#9 -362096#10 -362096#12 -363808#19 -361599#0 -361599#1 -363808#21 -363808#22 -363388#1 -363388#2 --362390#2 --362390#1 -362586#2 -362586#3 -363783 -360614#0 -360614#1 -360614#2 -360614#3 -360614#4 -363356#0 -363356#1 -363356#2 -364818#1 -362932#0 -362932#1 -363400#1 -363400#2 -363400#3 -363400#4 -363400#5 -363400#6 -363400#7 -363400#8 -363400#9 -360824#1 -362254#0 -362254#1 -362254#2 -363864#1 -363864#2 -363864#3 -363864#4 -364576#1 --361367 --362661#2 --362661#1 --362661#0 -364302#1 -364302#2 -361298#0 -361298#1 -361298#2 -361012#0 -361012#1 -364519#0 -364519#1 -364519#2 -360736 -360948#0 -360948#1 -362326#1 -362326#2 -361431#1 -361431#2 -361431#3 -361431#4 -361431#5 -361431#6 -361431#7 -361431#8 -361431#9 -361431#10 -361431#11 -361431#12 -361431#14 -361431#16 -361431#17 -361431#18 -361431#19" />
        <stop parkingArea="-1311239" triggered="true" expected="-4101_-4105_6" />
        <stop lane="-361431#19_1" duration="1.0" />
    </vehicle>
    <person id="-4101_-4105_6" type="pedestrian" depart="26888.81">
        <ride from="-362096#5" to="--362661#2" arrivalPos="144.54" lines="-4101_-4105_6_tr" />
        <walk edges="--362661#2 --362661#1 --363366 --364933#0" arrivalPos="25.345" />
        <stop duration="26331.62768401026" actType="P-Hospital" parkingArea="-1304967" />
        <walk edges="--364933#0 --363366 --362661#1 --362661#2" arrivalPos="144.54" />
        <ride from="--362661#2" to="-361431#19" arrivalPos="63.52" lines="-4101_-4105_6_tr" />
        <walk edges="-362096#5" arrivalPos="51.00681433174674" />
        <stop lane="-362096#5_0" duration="1.0" actType="Home" />
    </person>
    <vehicle id="-4101_-4105_1_tr" type="special" depart="triggered">
        <route edges="-363652#1 -362096#10 -362096#12 -362096#14 -362096#15 -362096#16 -362096#17 -362096#18 -362096#19 -362096#20 -362326#4 -363617#0 -363617#1 -363617#2 -363617#3 -363617#4 -361848#0 -361848#1 -361848#2 -362854#1 -362854#2 -362854#3 --364745#3 --364745#2 --364745#1 -364153 -364473#2 -361728#9 -361728#10 -361728#11 -361728#12 -363700#4 -363700#5 -363700#6 -363700#7 -363700#9 -363700#11 -363700#12 -363700#13 -363700#14 -363700#15 -363700#16 -363700#17 -363652#0 -363652#1" />
        <stop parkingArea="-1297790" triggered="true" expected="-4101_-4105_1" />
        <stop lane="-363652#1_1" duration="1.0" />
    </vehicle>
    <person id="-4101_-4105_1" type="pedestrian" depart="27046.6">
        <ride from="-363652#1" to="--364745#3" arrivalPos="97.6" lines="-4101_-4105_1_tr" />
        <walk edges="--364745#3 --364745#5 -363960#0 -362959#2 -364212 -362959#7 -364509#4 -361240#2 -361935#3" arrivalPos="81.21" />
        <stop duration="27871.064177637723" actType="P-Hospital" parkingArea="-1304967" />
        <walk edges="-361935#3 -364745#7 -364745#6 -364745#5 --364745#3" arrivalPos="97.6" />
        <ride from="--364745#3" to="-363652#1" arrivalPos="103.64785724024343" lines="-4101_-4105_1_tr" />
        <stop lane="-363652#1_0" duration="1.0" actType="Home" />
    </person>
    <vehicle id="-4101_-4105_4_tr" type="special" depart="triggered">
        <route edges="-363793#2 -364605#1 -364605#2 -360551#1 --362065#1 -364222#9 -364222#10 -364222#11 -364222#12 -364222#13 -363745#3 -363745#4 -363745#5 -361789#0 -361789#1 -362559#0 --364322#1 --364322#0 -364322#0 -364322#1 --362559#0 -361789#2 -362021#0 -362021#1 -363386#2 -361935#6 -361935#7 -363793#1 -363793#2" />
        <stop parkingArea="-1304967" triggered="true" expected="-4101_-4105_4" />
        <stop lane="-363793#2_1" duration="1.0" />
    </vehicle>
    <person id="-4101_-4105_4" type="pedestrian" depart="27086.82">
        <ride from="-363793#2" to="-364322#0" arrivalPos="16.840000000000003" lines="-4101_-4105_4_tr" />