<?xml version="1.0" encoding="UTF-8"?>

<!-- generated on 2025-08-30 00:02:51 by Eclipse SUMO netconvert Version c915cd253
<netconvertConfiguration xmlns:xsi="http://www.w3.org/2001/XMLSchema-instance" xsi:noNamespaceSchemaLocation="http://sumo.dlr.de/xsd/netconvertConfiguration.xsd">

    <input>
        <type-files value="/home/dahou/sumo/data/typemap/osmNetconvert.typ.xml,/home/dahou/sumo/data/typemap/osmNetconvertBicycle.typ.xml,/home/dahou/sumo/data/typemap/osmNetconvertPedestrians.typ.xml"/>
        <osm-files value="H2ST9_cp.osm"/>
    </input>

    <output>
        <output-file value="osm.net.xml"/>
        <output.street-names value="true"/>
        <output.original-names value="true"/>
        <ptstop-output value="osm_stops.add.xml"/>
        <ptline-output value="osm_ptlines.xml"/>
        <parking-output value="osm_parking.xml"/>
    </output>

    <projection>
        <proj.utm value="true"/>
    </projection>

    <processing>
        <geometry.remove value="true"/>
        <roundabouts.guess value="true"/>
    </processing>

    <tls_building>
        <tls.discard-simple value="true"/>
        <tls.join value="true"/>
        <tls.guess-signals value="true"/>
        <tls.default-type value="actuated"/>
    </tls_building>

    <ramp_guessing>
        <ramps.guess value="true"/>
    </ramp_guessing>

    <edge_removal>
        <keep-edges.components value="1"/>
        <remove-edges.isolated value="true"/>
    </edge_removal>

    <junctions>
        <no-internal-links value="false"/>
        <no-turnarounds value="false"/>
        <no-turnarounds.tls value="false"/>
        <no-turnarounds.geometry value="true"/>
        <no-turnarounds.except-deadend value="true"/>
        <no-turnarounds.except-turnlane value="false"/>
        <no-turnarounds.fringe value="true"/>
        <junctions.join value="true"/>
        <junctions.join-dist value="10"/>
        <junctions.join-same value="true"/>
        <junctions.corner-detail value="5"/>
        <junctions.internal-link-detail value="5"/>
        <check-lane-foes.roundabout value="true"/>
    </junctions>

    <pedestrian>
        <sidewalks.guess value="false"/>
        <sidewalks.guess.max-speed value="13.89"/>
        <sidewalks.guess.min-speed value="5.8"/>
        <sidewalks.guess.from-permissions value="false"/>
        <crossings.guess value="true"/>
        <crossings.guess.speed-threshold value="13.89"/>
        <walkingareas value="false"/>
        <walkingareas.join-dist value="15"/>
    </pedestrian>

    <bicycle>
        <bikelanes.guess value="false"/>
        <bikelanes.guess.max-speed value="22.22"/>
        <bikelanes.guess.min-speed value="5.8"/>
        <bikelanes.guess.from-permissions value="false"/>
    </bicycle>

    <railway>
        <railway.signals.discard value="false"/>
        <railway.topology.repair value="true"/>
        <railway.topology.repair.connect-straight value="true"/>
        <railway.topology.repair.stop-turn value="true"/>
        <railway.topology.all-bidi value="false"/>
        <railway.topology.direction-priority value="false"/>
        <railway.access-distance value="150"/>
        <railway.max-accesses value="5"/>
        <railway.access-factor value="1.5"/>
    </railway>

    <formats>
        <osm.skip-duplicates-check value="false"/>
        <osm.elevation value="true"/>
        <osm.stop-output.length value="25"/>
        <osm.stop-output.length.bus value="15"/>
        <osm.stop-output.length.tram value="25"/>
        <osm.stop-output.length.train value="200"/>
        <osm.all-attributes value="false"/>
    </formats>

    <report>
        <verbose value="true"/>
    </report>

</netconvertConfiguration>
-->

<additional xmlns:xsi="http://www.w3.org/2001/XMLSchema-instance" xsi:noNamespaceSchemaLocation="http://sumo.dlr.de/xsd/additional_file.xsd">
    <busStop id="-1297565" name="Oued Oum Rabia" lane="-364520#12_0" startPos="20.97" endPos="35.97" friendlyPos="true">
        <access lane="-362119#2_0" pos="36.57" length="16.09" friendlyPos="1"/>
        <access lane="-362119#3_0" pos="0.00" length="17.28" friendlyPos="1"/>
        <access lane="-363183#1_0" pos="0.20" length="4.45" friendlyPos="1"/>
        <access lane="-363183#2_0" pos="0.00" length="6.54" friendlyPos="1"/>
        <access lane="-363183#3_0" pos="0.00" length="11.39" friendlyPos="1"/>
    </busStop>
    <busStop id="-1297690" name="Terminus Hay Salam" lane="-361090#3_1" startPos="33.47" endPos="48.47" friendlyPos="true"/>
    <busStop id="-1297786" name="École Al Ajial" lane="-364302#0_1" startPos="17.62" endPos="32.62" friendlyPos="true"/>
    <busStop id="-1297882" name="ISTA Afghanistan" lane="--360649#0_1" startPos="21.86" endPos="36.86" friendlyPos="true" lines="L63 L301"/>
    <busStop id="-1297996" name="Cité Police Ibn Sina" lane="-363440#5_1" startPos="28.70" endPos="43.70" friendlyPos="true"/>
    <busStop id="-1297996@-4088" name="Cité Police Ibn Sina" lane="--363440#5_1" startPos="10.30" endPos="25.30" friendlyPos="true" lines="L143"/>
    <busStop id="-1298113" name="Résidences Firdaouss" lane="-362046#2_1" startPos="144.56" endPos="159.56" friendlyPos="true"/>
    <busStop id="-1298379" name="Facultés - Route d&apos;El Jadida" lane="-364897#2_1" startPos="186.96" endPos="201.96" friendlyPos="true"/>
    <busStop id="-1299194" name="Lycée Fechtali" lane="-361298#1_1" startPos="0.00" endPos="8.00" friendlyPos="true"/>
    <busStop id="-1299435" name="Derb Jamila" lane="-361822#5_1" startPos="0.00" endPos="3.77" friendlyPos="true"/>
    <busStop id="-1299777" name="Café Tafoukt" lane="-361076#5_1" startPos="12.29" endPos="27.29" friendlyPos="true"/>
    <busStop id="-1299936" name="Carr. Schneider" lane="-361935#3_1" startPos="110.36" endPos="125.36" friendlyPos="true"/>
    <busStop id="-1300165" name="Moulouya" lane="-364520#28_0" startPos="102.23" endPos="117.23" friendlyPos="true">
        <access lane="--364768#6_0" pos="0.00" length="32.19" friendlyPos="1"/>
        <access lane="-361645#2_0" pos="35.56" length="28.07" friendlyPos="1"/>
        <access lane="-361645#3_0" pos="0.00" length="30.92" friendlyPos="1"/>
        <access lane="-362305_0" pos="106.55" length="12.90" friendlyPos="1"/>
        <access lane="-364768#6_0" pos="38.18" length="34.92" friendlyPos="1"/>
    </busStop>
    <busStop id="-1300217" name="Terminus Sidi Al-Khadir" lane="-364054#0_1" startPos="15.45" endPos="30.45" friendlyPos="true"/>
    <busStop id="-1300315" name="Caf" lane="-361746#3_1" startPos="0.00" endPos="15.00" friendlyPos="true"/>
    <busStop id="-1300374" name="Sidi Al Khadir" lane="-364054#0_1" startPos="12.27" endPos="27.27" friendlyPos="true"/>
    <busStop id="-1300468" name="Hay El Hana" lane="-361109_1" startPos="64.80" endPos="79.80" friendlyPos="true"/>
    <busStop id="-1300538" name="Abdellah Ben Cherif" lane="-362320#30_0" startPos="50.34" endPos="75.34" friendlyPos="true" lines="T2">
        <access lane="--364233#0_0" pos="101.29" length="17.60" friendlyPos="1"/>
        <access lane="-361605#0_0" pos="0.00" length="107.58" friendlyPos="1"/>
        <access lane="-361728#7_0" pos="14.99" length="91.12" friendlyPos="1"/>
        <access lane="-361728#8_0" pos="0.00" length="90.97" friendlyPos="1"/>
        <access lane="-364233#0_0" pos="61.85" length="5.00" friendlyPos="1"/>
    </busStop>
    <busStop id="-1300865" name="École Al Ajial" lane="-362547#1_1" startPos="138.57" endPos="153.57" friendlyPos="true"/>
    <busStop id="-1300867" name="Moulouya" lane="-364836#3_0" startPos="101.46" endPos="116.46" friendlyPos="true">
        <access lane="--364768#6_0" pos="0.00" length="16.92" friendlyPos="1"/>
        <access lane="-361645#2_0" pos="35.56" length="13.15" friendlyPos="1"/>
        <access lane="-361645#3_0" pos="0.00" length="19.53" friendlyPos="1"/>
        <access lane="-362305_0" pos="107.13" length="28.14" friendlyPos="1"/>
        <access lane="-364768#6_0" pos="38.18" length="21.31" friendlyPos="1"/>
    </busStop>
    <busStop id="-1300954" name="Dar Lhamra" lane="-363548#2_1" startPos="0.00" endPos="15.00" friendlyPos="true"/>
    <busStop id="-1300954@-4088" name="Dar Lhamra" lane="--363548#2_1" startPos="64.02" endPos="79.02" friendlyPos="true" lines="L143"/>
    <busStop id="-1301325" name="Dar Lhamra" lane="--363548#2_1" startPos="62.02" endPos="77.02" friendlyPos="true" lines="L50 L143 L9E"/>
    <busStop id="-1301380" name="L&apos;Academie" lane="-361243_1" startPos="73.02" endPos="88.02" friendlyPos="true"/>
    <busStop id="-1301630" name="Marjane Hay Hassani" lane="--363440#5_1" startPos="11.76" endPos="26.76" friendlyPos="true" lines="L50 L143"/>
    <busStop id="-1301753" name="Pharmacie Tam" lane="-360636#12_1" startPos="15.16" endPos="30.16" friendlyPos="true"/>
    <busStop id="-1301968" name="Hay Hassani" lane="-364669#7_1" startPos="0.00" endPos="3.31" friendlyPos="true"/>
    <busStop id="-1302193" name="Café Bouchiki" lane="-361076#11_1" startPos="0.00" endPos="6.83" friendlyPos="true"/>
    <busStop id="-1302544" name="Mosquée El Fath" lane="-360913#1_1" startPos="7.52" endPos="22.52" friendlyPos="true"/>
    <busStop id="-1302889" name="École Elibrahimi" lane="-364576#2_1" startPos="165.33" endPos="180.33" friendlyPos="true"/>
    <busStop id="-1302976" name="Facultés Terminus" lane="-362613#10_0" startPos="0.00" endPos="25.00" friendlyPos="true" lines="T1">
        <access lane="--361148#1_0" pos="0.00" length="49.39" friendlyPos="1"/>
        <access lane="-361148#1_0" pos="95.03" length="51.26" friendlyPos="1"/>
        <access lane="-362170#1_0" pos="86.68" length="21.41" friendlyPos="1"/>
        <access lane="-363554_0" pos="21.13" length="57.26" friendlyPos="1"/>
        <access lane="-363582#4_0" pos="128.87" length="9.52" friendlyPos="1"/>
    </busStop>
    <busStop id="-1303056" name="Oued Laou" lane="-364520#21_0" startPos="24.98" endPos="39.98" friendlyPos="true">
        <access lane="--363701#1_0" pos="0.00" length="20.44" friendlyPos="1"/>
        <access lane="-361133#2_0" pos="9.30" length="24.09" friendlyPos="1"/>
        <access lane="-362465#2_0" pos="19.07" length="17.34" friendlyPos="1"/>
        <access lane="-362465#3_0" pos="0.00" length="18.80" friendlyPos="1"/>
        <access lane="-363701#1_0" pos="12.61" length="20.98" friendlyPos="1"/>
    </busStop>
    <busStop id="-1303101" name="Anfa Park" lane="-361752#35_0" startPos="184.67" endPos="209.67" friendlyPos="true" lines="T2">
        <access lane="-362375#4_0" pos="52.48" length="44.56" friendlyPos="1"/>
        <access lane="-362930#2_0" pos="20.34" length="12.62" friendlyPos="1"/>
        <access lane="-363331#0_0" pos="21.73" length="7.79" friendlyPos="1"/>
        <access lane="-363700#16_0" pos="52.65" length="39.30" friendlyPos="1"/>
        <access lane="-364243#0_0" pos="76.21" length="20.37" friendlyPos="1"/>
    </busStop>
    <busStop id="-1303456" name="Terminus Mosquée Ferrara" lane="-361337_1" startPos="21.01" endPos="36.01" friendlyPos="true"/>
    <busStop id="-1303612" name="Groupe Scolaire Al Amjad" lane="--363878#1_1" startPos="23.99" endPos="38.99" friendlyPos="true" lines="L9E L68"/>
    <busStop id="-1303655" name="Mosquée Afghanistan" lane="-362840#2_1" startPos="4.47" endPos="19.47" friendlyPos="true"/>
    <busStop id="-1303795" name="Cité Police Ibn Sina" lane="--363131#4_1" startPos="0.00" endPos="15.00" friendlyPos="true" lines="L9E"/>
    <busStop id="-1303933" name="Hay Hassani" lane="-362320#54_0" startPos="0.00" endPos="0.28" friendlyPos="true" lines="T2">
        <access lane="--363467_0" pos="0.00" length="15.74" friendlyPos="1"/>
        <access lane="-362723#0_0" pos="0.00" length="25.34" friendlyPos="1"/>
        <access lane="-363467_0" pos="20.82" length="17.84" friendlyPos="1"/>
        <access lane="-364801#1_0" pos="21.24" length="15.23" friendlyPos="1"/>
        <access lane="-364801#2_0" pos="0.00" length="16.45" friendlyPos="1"/>
    </busStop>
    <busStop id="-1304466" name="Groupe Scolaire Al Amjad" lane="--363878#1_1" startPos="25.24" endPos="40.24" friendlyPos="true" lines="L68"/>
    <busStop id="-1304523" name="Polyclinique CNSS Rabia" lane="-361935#7_1" startPos="8.24" endPos="23.24" friendlyPos="true"/>
    <busStop id="-1305082" name="Polyclinique CNSS Rabia" lane="-363745#3_1" startPos="8.45" endPos="23.45" friendlyPos="true"/>
    <busStop id="-1305161" name="Anfa Clubs" lane="-361752#43_0" startPos="64.57" endPos="89.57" friendlyPos="true" lines="T2">
        <access lane="--362598#8_0" pos="64.07" length="114.94" friendlyPos="1"/>
        <access lane="--363597#8_0" pos="63.61" length="17.54" friendlyPos="1"/>
        <access lane="-361992#1_0" pos="199.91" length="102.28" friendlyPos="1"/>
        <access lane="-361992#4_0" pos="0.00" length="101.55" friendlyPos="1"/>
        <access lane="-363597#8_0" pos="76.98" length="4.94" friendlyPos="1"/>
    </busStop>
    <busStop id="-1305225" name="Résidences Firdaouss" lane="-361708#1_1" startPos="0.00" endPos="15.00" friendlyPos="true"/>
    <busStop id="-1305317" name="École Elibrahimi" lane="-364131#1_1" startPos="54.05" endPos="69.05" friendlyPos="true"/>
    <busStop id="-1305957" name="École Elbennay" lane="-362941#1_1" startPos="7.19" endPos="22.19" friendlyPos="true"/>
    <busStop id="-1305957@-4086" name="École Elbennay" lane="--362941#1_1" startPos="32.32" endPos="47.32" friendlyPos="true" lines="L68 L143"/>
    <busStop id="-1306300" name="Angle Oum Rabia/Naciri" lane="-364891_1" startPos="0.00" endPos="15.00" friendlyPos="true"/>
    <busStop id="-1306905" name="Souk Ould Mina" lane="--363548#12_1" startPos="1.15" endPos="16.15" friendlyPos="true" lines="L50 L143 L9E"/>
    <busStop id="-1307043" name="Carr. Schneider" lane="-363745#10_1" startPos="48.29" endPos="63.29" friendlyPos="true"/>
    <busStop id="-1307069" name="Mosquée El Fath" lane="--360913#1_1" startPos="26.47" endPos="41.47" friendlyPos="true" lines="L109"/>
    <busStop id="-1307069@-4086" name="Mosquée El Fath" lane="-360913#1_1" startPos="0.00" endPos="15.00" friendlyPos="true"/>
    <busStop id="-1307150" name="Oued Oum Rabia" lane="-364836#19_0" startPos="0.00" endPos="15.00" friendlyPos="true">
        <access lane="-361848#1_0" pos="3.23" length="13.52" friendlyPos="1"/>
        <access lane="-363183#2_0" pos="0.20" length="12.62" friendlyPos="1"/>
        <access lane="-363183#3_0" pos="0.20" length="9.33" friendlyPos="1"/>
        <access lane="-363938#8_0" pos="55.51" length="15.70" friendlyPos="1"/>
        <access lane="-363938#9_0" pos="4.34" length="11.18" friendlyPos="1"/>
    </busStop>
    <busStop id="-1307196" name="Oued Laou" lane="-364836#10_0" startPos="488.53" endPos="503.53" friendlyPos="true">
        <access lane="-360736_0" pos="35.51" length="15.68" friendlyPos="1"/>
        <access lane="-360737#2_0" pos="14.98" length="21.76" friendlyPos="1"/>
        <access lane="-361133#1_0" pos="75.57" length="20.39" friendlyPos="1"/>
        <access lane="-361133#2_0" pos="6.25" length="10.22" friendlyPos="1"/>
        <access lane="-362679_0" pos="0.00" length="18.48" friendlyPos="1"/>
    </busStop>
    <busStop id="-1307506" name="Pharmacie Tam" lane="-363631#0_1" startPos="28.02" endPos="43.02" friendlyPos="true"/>
    <busStop id="-1307541" name="Lycée Fechtali" lane="-361015#3_1" startPos="21.97" endPos="36.97" friendlyPos="true"/>
    <busStop id="-1307541@-4088" name="Lycée Fechtali" lane="--364933#0_1" startPos="35.69" endPos="50.69" friendlyPos="true" lines="L143"/>
    <busStop id="-1307748" name="Abdellah Ben Cherif" lane="-361752#24_0" startPos="122.02" endPos="147.02" friendlyPos="true" lines="T2">
        <access lane="--364233#0_0" pos="101.20" length="13.21" friendlyPos="1"/>
        <access lane="-361605#0_0" pos="0.00" length="105.61" friendlyPos="1"/>
        <access lane="-361728#7_0" pos="14.99" length="89.33" friendlyPos="1"/>
        <access lane="-361728#8_0" pos="2.33" length="88.80" friendlyPos="1"/>
        <access lane="-364233#0_0" pos="61.94" length="0.61" friendlyPos="1"/>
    </busStop>
    <busStop id="-1307753" name="Sidi Al Khadir" lane="-364054#0_1" startPos="0.00" endPos="15.00" friendlyPos="true"/>
    <busStop id="-1307804" name="École Elbennay" lane="--362941#1_1" startPos="31.57" endPos="46.57" friendlyPos="true" lines="L143 L68"/>
    <busStop id="-1307824" name="Place Financière" lane="-361752#32_0" startPos="66.12" endPos="91.12" friendlyPos="true" lines="T2">
        <access lane="-361333#20_0" pos="40.14" length="32.82" friendlyPos="1"/>
        <access lane="-362985#2_0" pos="22.06" length="42.13" friendlyPos="1"/>
        <access lane="-363254#3_0" pos="71.83" length="29.82" friendlyPos="1"/>
        <access lane="-363537#4_0" pos="71.84" length="26.59" friendlyPos="1"/>
        <access lane="-363808#5_0" pos="78.60" length="17.28" friendlyPos="1"/>
    </busStop>
    <busStop id="-1308094" name="Hay Hassani T2" lane="--362026#3_1" startPos="10.79" endPos="25.79" friendlyPos="true" lines="L301"/>
    <busStop id="-1308382" name="Sidi Abderrahmane" lane="-361752#8_0" startPos="39.76" endPos="64.76" friendlyPos="true" lines="T2">
        <access lane="-361646_0" pos="76.18" length="45.95" friendlyPos="1"/>
        <access lane="-362419#5_0" pos="25.15" length="15.25" friendlyPos="1"/>
        <access lane="-363898#1_0" pos="0.20" length="46.01" friendlyPos="1"/>
        <access lane="-363898#2_0" pos="0.00" length="45.89" friendlyPos="1"/>
        <access lane="-364548#2_0" pos="27.66" length="26.31" friendlyPos="1"/>
    </busStop>
    <busStop id="-1308448" name="Beauséjour" lane="-362320#1_0" startPos="30.49" endPos="55.49" friendlyPos="true" lines="T2">
        <access lane="--362557_0" pos="37.09" length="29.12" friendlyPos="1"/>
        <access lane="-361638#10_0" pos="0.06" length="23.98" friendlyPos="1"/>
        <access lane="-361638#9_0" pos="63.00" length="31.20" friendlyPos="1"/>
        <access lane="-362557_0" pos="0.00" length="32.86" friendlyPos="1"/>
        <access lane="-364014#1_0" pos="42.99" length="17.30" friendlyPos="1"/>
    </busStop>
    <busStop id="-1308890" name="Etablissement Moussaoui" lane="--364084#0_1" startPos="2.61" endPos="17.61" friendlyPos="true" lines="L68"/>
    <busStop id="-1308918" name="Hay Salam" lane="-360818#0_1" startPos="90.62" endPos="105.62" friendlyPos="true"/>
    <busStop id="-1308920" name="Stade Père-Jégo" lane="-361823#1_1" startPos="41.20" endPos="56.20" friendlyPos="true"/>
    <busStop id="-1308978" name="Oulfa" lane="-361847#3_1" startPos="45.35" endPos="60.35" friendlyPos="true"/>
    <busStop id="-1308978@-4086" name="Oulfa" lane="--362218#0_1" startPos="0.00" endPos="2.69" friendlyPos="true" lines="L68"/>
    <busStop id="-1309247" name="Angle Oum Rabia/Naciri" lane="-364448#1_1" startPos="157.45" endPos="172.45" friendlyPos="true"/>
    <busStop id="-1309625" name="Laymoune" lane="-362354#10_0" startPos="296.36" endPos="321.36" friendlyPos="true" lines="T1">
        <access lane="--360885#3_0" pos="0.00" length="23.61" friendlyPos="1"/>
        <access lane="-360885#3_0" pos="50.55" length="19.14" friendlyPos="1"/>
        <access lane="-361301_0" pos="65.83" length="22.50" friendlyPos="1"/>
        <access lane="-361366_0" pos="0.00" length="30.38" friendlyPos="1"/>
        <access lane="-363816#0_0" pos="0.00" length="28.36" friendlyPos="1"/>
    </busStop>
    <busStop id="-1309908" name="Souk Ould Mina" lane="-363548#12_1" startPos="134.30" endPos="149.30" friendlyPos="true"/>
    <busStop id="-1309908@-4088" name="Souk Ould Mina" lane="--363548#12_1" startPos="0.00" endPos="15.00" friendlyPos="true" lines="L143"/>
    <busStop id="-1309946" name="Stade Hay Hassani" lane="--361076#10_1" startPos="0.00" endPos="4.06" friendlyPos="true" lines="72"/>
    <busStop id="-1310234" name="Mosquée Afghanistan" lane="-362840#2_1" startPos="2.81" endPos="17.81" friendlyPos="true"/>
    <busStop id="-1310234@-4102" name="Mosquée Afghanistan" lane="--362840#2_1" startPos="56.61" endPos="71.61" friendlyPos="true" lines="L19 L63"/>
    <busStop id="-1310492" name="Anfa Clubs" lane="-362320#11_0" startPos="54.14" endPos="79.14" friendlyPos="true" lines="T2">
        <access lane="--361969#3_0" pos="68.16" length="118.01" friendlyPos="1"/>
        <access lane="--363597#8_0" pos="64.99" length="14.00" friendlyPos="1"/>
        <access lane="-361992#1_0" pos="199.91" length="103.60" friendlyPos="1"/>
        <access lane="-361992#4_0" pos="0.00" length="104.59" friendlyPos="1"/>
        <access lane="-363597#8_0" pos="75.60" length="1.40" friendlyPos="1"/>
    </busStop>
    <busStop id="-1310571" name="Café Kairaouan" lane="--363440#13_1" startPos="0.00" endPos="15.00" friendlyPos="true" lines="L50"/>
    <busStop id="-1311424" name="Oued Beht" lane="-364836#8_0" startPos="14.01" endPos="29.01" friendlyPos="true">
        <access lane="-361015#3_0" pos="82.12" length="32.81" friendlyPos="1"/>
        <access lane="-361015#4_0" pos="0.00" length="46.69" friendlyPos="1"/>
        <access lane="-361298#0_0" pos="21.42" length="11.91" friendlyPos="1"/>
        <access lane="-363897_0" pos="0.00" length="51.26" friendlyPos="1"/>
        <access lane="-364091#1_0" pos="0.00" length="57.66" friendlyPos="1"/>
    </busStop>
    <busStop id="-1311578" name="Café Tafoukt" lane="--361076#5_1" startPos="12.10" endPos="27.10" friendlyPos="true" lines="L19 L63"/>
    <busStop id="-1312010" name="Facultés" lane="-362354#2_0" startPos="93.63" endPos="118.63" friendlyPos="true" lines="T1">
        <access lane="--361148#1_0" pos="0.00" length="54.33" friendlyPos="1"/>
        <access lane="--363554_0" pos="62.49" length="56.44" friendlyPos="1"/>
        <access lane="-362170#1_0" pos="85.06" length="16.08" friendlyPos="1"/>
        <access lane="-363554_0" pos="22.25" length="51.64" friendlyPos="1"/>
        <access lane="-363582#4_0" pos="130.78" length="14.63" friendlyPos="1"/>
    </busStop>
    <busStop id="-1312014" name="Les Musees" lane="-364836#25_0" startPos="216.88" endPos="231.88" friendlyPos="true">
        <access lane="-361160#0_0" pos="0.00" length="66.37" friendlyPos="1"/>
        <access lane="-361728#8_0" pos="52.40" length="32.61" friendlyPos="1"/>
        <access lane="-361848#8_0" pos="171.13" length="12.17" friendlyPos="1"/>
        <access lane="-363254#0_0" pos="19.83" length="61.22" friendlyPos="1"/>
        <access lane="-364303#2_0" pos="37.31" length="15.12" friendlyPos="1"/>
    </busStop>
    <busStop id="-1312169" name="Laymoune" lane="-362613#0_0" startPos="76.90" endPos="101.90" friendlyPos="true" lines="T1">
        <access lane="--363816#0_0" pos="45.14" length="25.90" friendlyPos="1"/>
        <access lane="-360885#3_0" pos="50.55" length="26.08" friendlyPos="1"/>
        <access lane="-361301_0" pos="65.83" length="27.58" friendlyPos="1"/>
        <access lane="-361366_0" pos="0.00" length="24.98" friendlyPos="1"/>
        <access lane="-363816#0_0" pos="0.00" length="21.41" friendlyPos="1"/>
    </busStop>
    <busStop id="-1312177" name="Terminus Mosquée Ferrara" lane="-364596_1" startPos="112.24" endPos="127.24" friendlyPos="true"/>
    <busStop id="-1312482" name="Café Bouchiki" lane="--361076#10_1" startPos="0.00" endPos="4.06" friendlyPos="true" lines="L19 L63"/>
    <busStop id="-1312707" name="Beauséjour" lane="-361752#53_0" startPos="64.52" endPos="89.52" friendlyPos="true" lines="T2">
        <access lane="--362557_0" pos="37.09" length="20.62" friendlyPos="1"/>
        <access lane="-361638#10_0" pos="0.82" length="15.11" friendlyPos="1"/>
        <access lane="-361638#9_0" pos="63.00" length="26.02" friendlyPos="1"/>
        <access lane="-362557_0" pos="0.00" length="26.34" friendlyPos="1"/>
        <access lane="-364014#1_0" pos="42.18" length="26.16" friendlyPos="1"/>
    </busStop>
    <busStop id="-1313253" name="Place Financière" lane="-362320#22_0" startPos="27.57" endPos="52.57" friendlyPos="true" lines="T2">
        <access lane="-361333#20_0" pos="40.03" length="26.29" friendlyPos="1"/>
        <access lane="-362985#2_0" pos="21.88" length="35.60" friendlyPos="1"/>
        <access lane="-363254#3_0" pos="71.95" length="36.35" friendlyPos="1"/>
        <access lane="-363537#4_0" pos="71.95" length="33.12" friendlyPos="1"/>
        <access lane="-363808#5_0" pos="78.71" length="23.81" friendlyPos="1"/>
    </busStop>
    <busStop id="-1313606" name="C.A. Tensift" lane="--362941#10_1" startPos="14.32" endPos="29.32" friendlyPos="true" lines="L143 L68"/>
    <busStop id="-1314270" name="Anfa Park" lane="-362320#19_0" startPos="33.73" endPos="58.73" friendlyPos="true" lines="T2">
        <access lane="-362375#4_0" pos="52.31" length="52.69" friendlyPos="1"/>
        <access lane="-362930#2_0" pos="20.48" length="20.74" friendlyPos="1"/>
        <access lane="-363331#0_0" pos="21.83" length="15.92" friendlyPos="1"/>
        <access lane="-363700#16_0" pos="52.51" length="47.43" friendlyPos="1"/>
        <access lane="-364243#0_0" pos="75.98" length="12.25" friendlyPos="1"/>
    </busStop>
    <busStop id="-1314532" name="Cité de l&apos;Air" lane="-362320#36_0" startPos="28.07" endPos="53.07" friendlyPos="true" lines="T2">
        <access lane="-361876#0_0" pos="0.00" length="59.08" friendlyPos="1"/>
        <access lane="-362065#5_0" pos="2.99" length="61.38" friendlyPos="1"/>
        <access lane="-362774#3_0" pos="3.11" length="59.42" friendlyPos="1"/>
        <access lane="-362774#5_0" pos="0.00" length="59.86" friendlyPos="1"/>
        <access lane="-362774#6_0" pos="0.00" length="60.51" friendlyPos="1"/>
    </busStop>
    <busStop id="-1314863" name="Caf" lane="-362943#5_1" startPos="232.63" endPos="247.63" friendlyPos="true"/>
    <busStop id="-1315086" name="Cité de l&apos;Air" lane="-361752#18_0" startPos="25.34" endPos="50.34" friendlyPos="true" lines="T2">
        <access lane="-362065#5_0" pos="2.99" length="62.47" friendlyPos="1"/>
        <access lane="-362774#11_0" pos="0.00" length="63.31" friendlyPos="1"/>
        <access lane="-362774#2_0" pos="121.70" length="61.55" friendlyPos="1"/>
        <access lane="-362774#3_0" pos="2.55" length="60.48" friendlyPos="1"/>
        <access lane="-362912#1_0" pos="0.20" length="62.05" friendlyPos="1"/>
    </busStop>
    <busStop id="-1315816" name="Rond Point Chahdia" lane="-361626#2_1" startPos="1.79" endPos="16.79" friendlyPos="true"/>
    <busStop id="-1315879" name="Terminus Hay Salam" lane="-363992#0_1" startPos="0.00" endPos="15.00" friendlyPos="true"/>
    <busStop id="-1315940" name="C.A. Tensift" lane="-362941#10_1" startPos="73.62" endPos="88.62" friendlyPos="true"/>
    <busStop id="-1315940@-4086" name="C.A. Tensift" lane="--362941#10_1" startPos="10.78" endPos="25.78" friendlyPos="true" lines="L68 L143"/>
    <busStop id="-1316060" name="Hay Salam" lane="-362592#1_1" startPos="0.00" endPos="15.00" friendlyPos="true"/>
    <busStop id="-1316081" name="Tribunal" lane="-362100#3_1" startPos="3.57" endPos="18.57" friendlyPos="true"/>
    <busStop id="-1316105" name="Rond Point Chahdia" lane="--361626#2_1" startPos="5.03" endPos="20.03" friendlyPos="true" lines="L109"/>
    <busStop id="-1316105@-4086" name="Rond Point Chahdia" lane="-361626#2_1" startPos="2.80" endPos="17.80" friendlyPos="true"/>
    <busStop id="-1316156" name="Hay Hassani" lane="-362320#54_0" startPos="0.00" endPos="0.28" friendlyPos="true" lines="T2">
        <access lane="--363467_0" pos="0.00" length="25.65" friendlyPos="1"/>
        <access lane="-363467_0" pos="20.82" length="28.17" friendlyPos="1"/>
        <access lane="-364801#1_0" pos="20.71" length="25.55" friendlyPos="1"/>
        <access lane="-364801#2_0" pos="0.00" length="26.50" friendlyPos="1"/>
        <access lane="-364813#4_0" pos="65.23" length="15.98" friendlyPos="1"/>
    </busStop>
    <busStop id="-1316390" name="Tribunal" lane="-360607#2_1" startPos="0.00" endPos="15.00" friendlyPos="true"/>
    <busStop id="-1316779" name="Oued Beht" lane="-364520#23_0" startPos="421.40" endPos="436.40" friendlyPos="true">
        <access lane="-361015#3_0" pos="82.60" length="20.28" friendlyPos="1"/>
        <access lane="-361015#4_0" pos="0.00" length="37.55" friendlyPos="1"/>
        <access lane="-361298#0_0" pos="21.15" length="24.45" friendlyPos="1"/>
        <access lane="-363897_0" pos="0.00" length="40.37" friendlyPos="1"/>
        <access lane="-364091#1_0" pos="0.00" length="48.26" friendlyPos="1"/>
    </busStop>
    <busStop id="-1317248" name="Résidence Abwab Rabia" lane="-364519#2_1" startPos="63.02" endPos="78.02" friendlyPos="true"/>
    <busStop id="-1317699" name="Sidi Abderrahmane" lane="-362320#46_0" startPos="15.34" endPos="40.34" friendlyPos="true" lines="T2">
        <access lane="-362419#5_0" pos="25.30" length="20.98" friendlyPos="1"/>
        <access lane="-363898#1_0" pos="0.20" length="46.53" friendlyPos="1"/>
        <access lane="-363898#2_0" pos="0.20" length="45.64" friendlyPos="1"/>
        <access lane="-363898#3_0" pos="0.00" length="45.89" friendlyPos="1"/>
        <access lane="-364548#2_0" pos="27.60" length="20.57" friendlyPos="1"/>
    </busStop>
    <busStop id="-1317797" name="Oulfa" lane="-363957#0_1" startPos="0.00" endPos="15.00" friendlyPos="true"/>
    <busStop id="-1318070" name="Les Musees" lane="-364520#6_0" startPos="49.97" endPos="64.97" friendlyPos="true">
        <access lane="-361160#0_0" pos="0.00" length="66.31" friendlyPos="1"/>
        <access lane="-361728#8_0" pos="57.48" length="15.66" friendlyPos="1"/>
        <access lane="-361848#8_0" pos="166.13" length="29.19" friendlyPos="1"/>
        <access lane="-364303#1_0" pos="60.70" length="65.50" friendlyPos="1"/>
        <access lane="-364303#2_0" pos="32.06" length="31.95" friendlyPos="1"/>
    </busStop>
    <busStop id="-1318136" name="Boulevard des Facultés" lane="--364084#0_1" startPos="1.66" endPos="16.66" friendlyPos="true" lines="L9E"/>