<?xml version="1.0" encoding="UTF-8"?>

<!-- generated on 2025-08-27 10:51:06.074669 by scenarioFromOSM.py UNKNOWN
  options: <doubleminus>osm H2ST9_cp.osm <doubleminus>out ep3 <doubleminus>population 300 <doubleminus>local-defaults
-->

<tazs xmlns:xsi="http://www.w3.org/2001/XMLSchema-instance" xsi:noNamespaceSchemaLocation="http://sumo.dlr.de/xsd/taz_file.xsd">
    <!-- id="-1891" name="Oulfa" -->
    <taz id="-1891" edges="--166936#1 -167455 -167646#3 -168489#1 --165645 --166777#0 --167075#2 -166193#0 --169544#3 -165891#2 --169137#1 -168471#6 -168594#1 --168277#1 -167216#0 --166177 --167541#1 --166612#5 --168584 -167068 --167604#1 -165837 -169585#1 -168990#1 --165982#2 --166835 --168827#0 --166416#2 -165489#1 --167178 -166121#1 -166334 -167489#1 -168594#2 -168863#0 -166208#2 -169115#1 -167475 --168662#1 --166777#2 --165567#1 --168949#4 --166820#0 -166169#4 --168012 -167878 -168127#0 --166208#4 -169373#1 -168706#4 --165367#1 -166516#1 --167807#7 --165553#1 -168005#1 -165796#1 --168081#1 --166845 -169099#0 -168511 --167917 --168813#2 -167630#2 -167524#0 -168951#19 -166649 -168031#0 --167135#2 --165413#0 --165807#1 --166421 -168081#2 -169587 -165951 -168045#2 --165623#1 --166395 -165982#0 -165224#3 -167881#1 --169147#0 -165897 -167459#3 -165542#0 -168176#3 -169566#0 --165736 --168471#12 --166208#6 -165730#0 -165973#0 -166208#1 -169179#3 --167159#0 -165513#4 -165404#1 -165216#3 -167046#0 -168852#1 --168020#2 --167089#1 --167326 --168278#4 -168229#0 --169165#2 -166599#1 --168241#1 -167631#0 -167251 -167942#1 --166302 -167089#1 -168113 -168819#0 -168380#2 --166949#2 -166208#8 --166204 -165680#0 --168198#1 -165789#2 -165413#6 --167075#0 -165534#0 -169566#6 -165848 -166442#1 --169498#0 -168697 -166985#5 --169498#1 -167096#3 --165265#0 -168445#1 -165450#2 -168788 --167230#0 -165616 -166099#1 -167917 --169333#1 --165894#0 -168951#24 --167780#1 -167408#0 -168109#2 -169099#1 --168151 -169300 -167050 -165973#1 --166442#5 --169489#0 --169528#3 -165567#3 -168121 -168893 -167852#4 --169165#3 --167630#4 -167258 -168412#5 -168937#1 --168299#1 --166888 -168883#1 --167852#4 --167631#0 -168903#1 -167881#2 -168503#3 -166297 -165228#3 --166208#5 --169535#4 --168396 -165982#5 -168059#0 -165851#14 --167881#4 --167188#3 -166484#1 -168883#4 -168723#1 --167722#0 -166566 -165728#0 --165216#1 -166819#1 -167767#11 -165568#4 -166462#3 --166424#0 -165895 --166128 --165670#0 --167807#4 -165404#2 --167510#1 -165931 --169077 -168460#1 -167569#2 -165680#2 -165293#1 -165271#1 -165532 -165364 -167983#0 -168856#8 -167213#4 --169099#2 -169566#2 --167885#1 -166796#3 -169566#4 --168743#0 -165413#5 -166540 -167924#2 -166423 -166827 -169032#0 -167933 --166768#1 --169553#0 -168012 --168955#0 --167096#4 --167277 -167767#5 -169490 -166416#0 -168955#0 --165739#1 --167399 -167718 --167008 -167008 --167881#0 -167924#3 --165979 --168505 --165224#4 --166462#1 -167569#0 --166034 -168883#2 -166288 --168981#0 -169566#7 --165559#3 -168411 -166750#1 -169165#3 --168420 -167292#0 --165542#0 --167505#0 -166204 -167075#0 -168827#1 -169528#3 -168949#4 --167569#2 --167807#0 --168949#0 -168299#1 --166442#3 --166968#2 -165450#1 -165851#10 -167009#1 -167955 -165493#0 -166421 -168460#4 --167630#0 --167246#1 -166922#3 --169460 --168524#2 -165392#19 -168176#6 -167138 -167863 -166783 -166121#0 -166534 -167644#1 -169335 -166982#1 -167760 --166657 -166949#1 -168908#3 -167983#1 -166818#3 --166777#4 -166240 --165239 --169513#1 --169465#1 -166178#1 -168939 -166952 -167520 -168266#0 -169195#0 -166442#2 -168081#0 -165414#0 --166495 --169566#1 -169032#1 --169177 --165960#0 --166362 -169449#3 --165567#0 -167310 -165329 -167780#2 -169373#0 --166566 --168524#0 --165271#0 --166982#1 -166103#0 -165891#1 -166032#1 --166555 -167396#0 --165618#0 --167273#2 -168176#2 -165830#1 -169305 --168903#0 --166698#1 --166731#1 -166464#1 --166516#0 --167686 -167464#0 -166178#0 -169000 -165589#2 -165733#1 -167767#10 --169137#6 -167249#1 -166322#0 -165818#3 --168852#2 -169142#0 --166262 --167334 -165291 --165354 --165701#1 -168852#0 --167524#0 -167722#0 -168887#6 -168045#6 -167274#0 -165933#2 --167758#2 --165413#11 --168222#0 --165894#1 --168229#0 --168027#0 -165404#9 --165450#2 --167718 -167345#3 -169083#1 -166398#3 --167807#5 -166040#2 --168098 -168176#9 --166398#1 -168108#0 -169479#1 --167434 --168860 -168471#11 -168135 --165837 -166975#0 -168867#0 --165755#0 -168489#0 --166409#0 -169391#4 -165586 --168241#4 --168082 -167553#4 -165807#1 -165451#1 -169368#1 -166583#0 -168016 -168612 -169306 --167983#1 -168278#4 -169328 -168108#3 --167075#3 --165586 --166900 --165387#1 -168530 --168247 -168543#0 --167807#1 --167758#3 --166599#1 -168582#1 -168655 -165986#2 -168887#4 --165266 -165728#4 -168691 -168662#0 -167827#1 -169379 -165982#4 -168916#3 -167540#1 -168176#5 --165618#1 -168883#3 --165898#1 --166649 -167094#4 -166354#1 -169533#1 --167644#1 -165392#6 -166559 -168813#4 -165392#4 -167307#1 --167248 --165559#0 --169566#9 -165392#22 -167774#0 -169099#2 -169230#0 -166279#2 -165489#4 -165592 -166393#0 -167209#1 --168326 -168680#0 --166561 --167679#0 -166442#3 -165568#3 -168108#2 -168313 -166070#0 --167470 -168080 --167640#0 --167773 --169585#1 -166701#1 --168116 -168855 --168290 -166352#1 -166227#1 -166282#1 -169142#1 -167149 -165933#4 -165511 -168229#1 -166985#1 --168954#1 --167301#4 --166612#3 -168887#0 -165604 --165265#1 --165891#2 -167881#4 -165559#3 --168593#1 --167089#0 --166794#3 --167885#0 -165843#2 -167807#8 -165937#2 --165891#5 -168706#5 -166565#5 -165818#2 -165671#0 -167388 --166559 --166985#1 -167134#1 --168818#6 -167646#0 --166208#7 --166887 -167807#6 --167594#1 --165869 -168695 -166916 -168403#0 -168278#1 -165404#3 -169322 --165579#2 --166322#0 -166887 -167266 -168310 -167248 -168579 --169490 -167326 --167216#0 --167778 --167553#1 -165556 -165361#0 -169463#3 --166489 --168285#0 --165232 -165413#3 --166074#0 --167941 -168007#2 -168559#4 --168778 -165719#0 --166107#1 --166931 -167094#0 --166121#0 --166106#0 -165894#1 --166010#2 --168666 -168745 --169535#3 -166859#1 -168949#1 --168530 --169465#0 --168005#1 -166331#1 --165592 -166211#5 -166612#7 --167604#0 -166398#4 -165761#0 -165933#0 -168863#1 -169386 --169515 --168981#1 -169533#3 -166107#0 --165897 --168955#1 --168612 -168387 -166008 --167025 --165579#0 --167219#0 --165450#3 --169553#2 --165730#1 --168743#2 -165891#4 -165455 -167775#2 --167239 -166820#2 -167209#2 --168908#2 --166985#4 --167796 -168241#0 --165701#0 -165450#0 -167216#1 -169141#0 --167881#5 -168497 -168126 -168198#1 --167258 -166211#0 -168277#1 -165216#0 -167276#2 --165804 -169391#0 --167774#3 -167150#3 -165579#0 -166808#2 --168030 -165851#7 -167528#20 -169544#4 -167001 -167885#0 --168680#2 --169528#2 -165370#0 -169274 -168951#23 -165765#2 -165324 --165514 -168818#0 -167767#3 -166319#1 -167900#1 --165303#0 -168593#1 --169544#2 --169465#2 -169003 --168818#1 -167113 -167190#1 --165568#4 -166424#1 -167918 -168593#0 -168278#0 -168738#1 -167524#3 -167213#3 --165579#1 --166398#0 --167301#0 -165293#0 --166484#2 -168045#3 -169571 --167942#0 --168503#3 --165776 -168552#1 -168230#2 -168438 --166322#1 -168241#2 -166010#1 -167903 --168273 -166386#3 --166538#1 --167782#0 -166137 --166982#0 --168059#1 -167881#8 -167507 -165808 --165568#3 --167640#1 -168524#1 --167510#3 --167103 -167807#4 --166010#0 --169274 -168159 -167646#4 --168461 --168380#1 -165404#8 -166398#0 -168887#1 --168380#0 -166262 --169392#2 -168524#0 --168475#0 --168903#1 -167088#1 -168624 --166354#0 -165651 --169165#1 -165698 --168706#3 --166859#1 --169392#0 -167900#0 -167291#0 -165513#2 --168863#1 -169376#0 -168992#2 -165623#0 --166948#2 -169361#0 -167924#1 -166074#0 -165553#1 -166006 -167569#1 -168314#0 -168367 -168915 -166701#0 -166698#0 -166251#2 -166322#2 -168333#2 -166221#2 -168778 --168706#2 -165618#1 -167644#2 --168852#0 --168706#6 --168467#1 -166169#1 --166107#0 --169137#3 --166731#0 -169093#1 --167388 -169460 --169115#1 -166779#0 -165695#0 -167219#0 --166256 -166974 -168981#1 --169335 -167522 -168587#0 --169535#2 -165559#0 -165413#8 -168347 -167354#1 -165392#15 -168916#1 -166968#0 --169503 --167630#3 --168471#8 -168856#7 -165851#5 -167767#0 -165825#2 -165247#1 -165789#1 -167349 -167775#4 --165413#8 -167097#4 -167273#2 --166510#2 --168908#3 -165224#4 -167188#7 --168027#2 -168680#3 -165354 -167150#0 -167489#0 -166985#4 -165568#2 -166416#1 -167150#2 --168850#0 -167213#0 --165777#1 -165266 --168738#0 -165269 --167163 --167852#1 -168834 --167131 --165458 --168795 -167541#0 --168841 -165392#26 --165413#7 --168929#1 -168502#1 -166931 -167698#1 -165883 -166708 -168818#3 -168762#0 -166632 -168696#1 -167176#1 --167881#2 -166975#2 --165370#0 -169137#2 --166668#1 --166819#4 --166484#1 --166540 -165851#9 -168400#2 -168109#0 -167459#0 -169585#0 -166489 --166702 -165818#0 --168421 -166331#0 -167159#0 -166395 -165851#3 --166030 -168222#1 -165851#6 -169524 --168367 -167807#7 -169503 -169032#2 -167640#0 -168949#3 --166984 -166859#4 -169177 --167096#1 --168333#2 -168611 --165891#1 -166467 --166820#3 --168863#0 -167368#1 -166524 -169392#3 -167528#18 --168838#1 --167199#2 --165890 --168048 --169195#0 -167071#0 --165687 -165851#1 --168497 -167882#2 --167835 -166949#4 --166442#2 --166985#3 --167944#1 --169142#0 -167511#1 --169007 -165891#5 -169368#0 -166922#6 -167882#1 -168850#1 -169544#2 --166974 -165404#5 -168471#3 --165542#1 --165883 --166552 --169333#0 -165933#1 -167778 -169515 --165559#2 -166211#1 -168887#3 --165567#3 -165559#1 -167834#0 -166612#5 --168559#5 --168743#1 -166513 -167075#1 -168559#6 -166169#5 --168611 --168023#1 -168271 --168680#0 --165761#1 --167981#0 --169553#1 --167644#3 -166221#1 -169240 -166922#0 --169544#4 --165761#0 -165216#2 -165239 -168502#2 -166795 -166227#0 --166916 -167188#3 -167250#1 -166484#0 -166777#0 -167834#1 --167599#0 -166682 --166282#1 --165845#1 --165599 -168502#0 --168117 -167150#1 --167273#1 -167518 -167983#2 -165338 -165204 --169528#0 -165228#0 -169141#1 -167239 --166398#4 -166658 -168359#1 -165529 --169566#4 --167096#0 -168420 --165845#0 -167881#3 -168397#1 -168277#2 --167569#0 --167429 --165280 --169449#1 --168543#0 -168856#6 -165265#2 --166612#0 -166922#4 --169137#2 -165986#3 -168023#3 -168762#1 -166698#1 --167842 --168908#0 --168126 --168857 --168160 -167246#1 -165894#2 -165450#3 --168108#3 -168005#0 -169083#3 -166657 --166612#14 --165739#0 --166484#3 --166777#1 --168081#2 -167599#1 -167630#1 -167071#1 -165258#2 --168182 -165224#2 --167088#0 -168743#0 -167941 -168133 -166948#1 -167134#2 --167881#8 --168360 -165392#0 -169465#2 -165392#17 -169498#0 -165755#0 --166297 -167758#0 --168278#0 -167301#4 -169391#3 -165553#0 -166010#0 -169233#0 -169375 --169544#1 -166558 --167097#0 --165216#3 --166464#2 -169544#1 --168559#10 --168435#0 -169392#0 --167697#1 -167178 -165821 -165413#10 --167790#0 --165891#4 -167300#0 --168127#0 --165982#3 -167025 -167620#2 -166635#1 --167137 -169465#0 -167881#0 -168640 --169361#1 -165549#0 -169093#0 --168108#0 --169074 -167505#1 -165361#2 -168559#9 -168567 --168007#0 --167983#2 --167230#1 --166612#12 -167774#1 --167947 --166193#3 -166393#1 -166208#10 --165796#1 -166352#0 -168951#22 -168662#1 --168640 --167518 --167553#2 -168954#0 --166482 --165895 --166467 -165898#0 -166777#1 --166032#2 --167774#0 --165559#1 -167541#3 --168124 --167524#3 -167333 -168783 -167089#0 --167807#2 -167936 --165450#0 -168723#0 -165392#14 --168489#0 -168856#3 --168109#0 -167163 -168311#2 --166985#5 -167459#1 --165938 --165982#0 -166010#2 -166561 -166936#1 -166193#2 -165820 -168928#1 -169560#0 -167444#2 -165567#1 --165719#1 --168732 --168310 --166590 -167944#1 --167096#3 --167520 -165489#7 -166768#2 -166768#0 -168467#0 --169392#3 --166818#1 --165842 -165589#6 -165757 --169099#1 -166200#1 -168765#1 --168081#0 --165329 -168023#2 -166688#0 -169333#1 --166626 -166221#3 --166026 --168241#2 -165807#0 -165360 --169392#1 --165894#2 -165227#0 -165796#0 -166731#0 -168856#4 -165513#1 --167780#0 --168263 -168472#1 -167442 -166251#3 --166416#1 -168397#0 -168471#4 -167553#3 --168229#1 -166107#4 --167722#1 -166777#2 -166182#1 -165265#0 -167135#3 -169535#4 --168471#4 --169364 --166599#0 -167510#3 --165640 -165982#3 -169139 --165933#0 --166818#0 -168505 -165670#0 --168007#2 -166015#2 -168394#1 --165619 --169305 --167097#3 -165765#0 --168022 -166409#1 -167444#1 -167924#4 -166091 --167918 -168559#2 --167981#2 --167553#3 --168241#0 --165380 --166926 --167933 --169046 -168108#1 -168559#0 --167242 -167510#1 -165303#0 -168860 -165960#0 -165825#3 -168653 -166705 --166099#0 -168471#9 -168266#1 --169168 -169535#2 --168559#2 --165568#0 -168007#0 --167678 --166327#0 -165933#5 -168951#20 -167301#0 --165364 --166509#2 --168278#1 -166565#4 --166668#0 -166211#4 -168951#25 -168887#2 -167230#1 --168677 -167097#2 -165387#1 --169528#7 -165804 --166948#0 --167807#3 --168929#0 --165532 -168951#21 -167880 --167135#3 --166404#4 -166088#1 --167150#0 -168300#0 -168262 --168108#1 -165392#27 --169264#1 -167686 -168818#7 -165379 --166818#3 -166404#2 -167594#0 -168552#2 -169133#2 -167715 -167540#0 -166462#1 -166208#4 --165831 --169196 --166558 -166865 -167528#17 --167412 --168813#0 --165204 -167276#0 -168666 -169077 -167594#1 --165937#2 --168544 --169533#1 -166070#2 --168031#1 -168360 --167301#1 --167881#1 --167408#0 -167540#2 -167429 -168937#0 -167679#0 --168059#0 -166835 --166524 --167096#2 --167094#3 -165938 -166404#7 -167250#4 --166612#10 -166182#0 --166819#2 -169528#1 --165451#0 --168314#0 -169147#0 -165765#1 --166820#2 -167885#1 --168023#2 -165973#2 --165224#1 -167846 -168543#1 --165891#0 -166404#6 -165367#1 -166433 --165731 -166908 -169084 -168981#0 -167350#2 -165731 --166705 -166796#1 --167096#6 -168738#0 --168390 -165392#24 -168916#6 -167722#1 -168460#3 -166818#0 -167230#0 -168850#0 --168031#0 --169230#0 -165776 -166985#3 -167844 --166319#1 --168662#0 -168020#3 -168818#1 -167216#2 --166010#1 --166200#1 -168584 --168023#3 --167758#1 -166496 --166404#7 -166034 --168850#2 -165507 --165864 -169083#2 --167540#1 -167276#3 --165227#0 -166565#6 -167030 -166138 -167947 --169336 --165413#9 -166314#0 --169233#1 --168552#1 -167299 -167094#2 --166948#1 -167899#0 -165683#1 --168928#2 --168471#11 --169528#5 -168202 -168081#1 --168695 -165413#1 -166103#1 --166859#3 -166302 -169165#2 -169392#2 -168721 -169032#4 --168867#1 -165392#1 --165370#1 -165392#2 --167300#0 --165937#0 --168467#0 --166794#1 -168223 -167546#3 --168115 -169069 -167767#9 --166400 -165777#0 -168916#5 -168594#0 -166211#3 -166169#0 -166279#0 -166926 --168850#1 --168827#1 -165728#1 -167620#0 -167780#1 --166612#7 --168380#2 --168108#2 --167844 --166708 --166088#0 --168222#1 -165559#2 --165367#0 -168277#3 --166354#1 -167767#13 -167346#1 -165845#1 --167881#3 -168609#0 --167266 --168908#1 -169179#4 -168088#1 -166169#2 --168198#0 -169513#0 -169005#1 -168198#0 -165728#3 -165535#4 --168622 -169513#1 --165413#5 -166651 --168277#0 -167900#2 --165719#0 -165303#1 --169566#7 -167137 --168135 -165579#1 -165498 -168765#0 --168552#0 --167654 -167698#2 --168928#1 -166948#2 -166462#2 -168333#0 -165864 -166354#0 -169133#1 -166106#0 --168585 --165553#0 --165710 -167798 --169533#2 --169137#0 --166041 -169324 -166734 --165755#1 -168509#2 -167434 --169233#0 -168543#2 --166101 -168020#0 -168460#2 -165228#2 -167767#1 -165356#1 -167767#2 --168333#0 -167599#0 -168743#1 -166208#6 -167096#4 -169449#0 -169441#1 --167892 -166482 --166070#0 -167277 -168870#1 --169083#3 --168266#1 --166322#2 -167981#0 --168559#6 --165362#0 -168311#0 --169005#0 --166424#1 --168593#0 --167510#0 -166552 --168745 --165933#1 --166171#0 --166538#0 --167114#0 -167389 --166975#0 -166404#3 -165933#3 --169528#1 -168176#4 --168559#9 -168827#0 -169553#2 -168124 -168503#2 -169179#1 --166908 -165228#1 --169560#1 --167553#4 --167759 -166516#0 --166442#1 --165683#1 --167097#6 -168394#0 --166099#1 -165818#1 -169315#0 --165356#1 --167524#2 -167320#0 --166808#2 --168278#3 -165392#7 --169560#0 --166819#1 --169585#0 -169535#3 --165982#4 --168818#3 --168818#5 -166279#1 --169566#5 -168457 -165851#2 --166088#1 -167881#5 -168290 -167088#0 -165568#1 -165478 -169391#2 -166464#2 -168483 -169074 -166032#2 --166282#0 -169560#1 --169137#4 --168954#0 --165324 -166070#1 -167774#3 -167640#1 --169566#3 -166818#2 -167483 -169286 --168818#7 --166651 -165224#1 --168313 -167881#6 -166015#0 --166968#0 -167842 --167274#0 -166128 -165362#0 -168363#0 -168887#5 -168071 -166794#1 -165574 --168285#2 -167242 --167782#1 -169083#0 --168559#0 -168867#1 --168020#0 --166779#1 -167806 -165851#4 --165761#2 --167464#0 -168027#2 -167602 -165851#12 --165450#1 --166778 -168471#12 --168121 --166070#2 -167368#0 -168953 -165227#2 -167276#4 -167523#1 --165937#1 -169392#1 -169329#13 --167620#0 -168916#7 -165280 -166193#3 -167696 -166461 --168838#0 -165489#6 -165640 --167300#1 -165671#1 -168272 -168509#1 -168706#0 -169029#0 -168397#5 -168250#2 -165387#0 --169535#5 -167807#5 -168706#2 -168857 -165903 -168585 -168116 -165489#5 --168300#0 --168818#4 --168438 -168958 -165404#6 -165851#8 --166208#1 --166465 --167188#0 -166555 -167528#14 --167333 --165303#1 --166208#2 -168270 -167505#0 -167097#6 --168706#0 -166768#1 -167097#3 --165247#1 --169099#0 -167604#1 --169513#0 -167907#2 --165498 --166794#0 --168543#1 -166509#0 --165291 -168045#4 -167646#1 -168020#2 --167899#0 -168856#5 -166386#1 -169543#1 -166736#1 -169115#3 -167541#1 -166612#3 -169533#2 -168706#6 -166956#0 -168916#2 --166509#0 -167805#1 -167470 -167459#4 -167981#2 --166404#2 --166698#0 -167190#0 -165489#2 -168841 --165818#3 -167835 --165379 --168559#7 --166534 -167075#2 --165413#10 --167301#3 --166808#1 -166015#1 --168559#4 -167250#0 --165629 --168133 -165433 --167389 -166769#0 --165808 -166698#2 -167412 -168176#0 --168020#1 -165687 --165960#1 --168471#10 -167852#2 --168949#1 -168940 -167300#1 -167630#4 --166949#1 --165982#1 -168127#1 -166107#2 --167780#2 -166076#0 -165761#2 -169183#1 -166465 -167046#1 -168952 --167138 --169566#8 --166193#0 -166251#1 --168076 -167541#2 -166409#0 --167199#1 --167805#1 -168609#2 -168908#0 -166859#0 -168954#1 -169137#1 -168552#4 --168387 -165413#7 --167097#2 -168573 -169233#1 --168908#4 -168645#0 --166462#3 -167301#1 -168117 --166583#0 --167697#0 -169479#2 -167758#2 -167852#1 -167790#0 -168543#3 --167715 -166668#0 --165224#2 -168929#0 --169373#0 --168552#4 -165890 --165933#2 --167292#0 -166386#0 -167096#0 -168115 -169183#2 -166327#1 -165356#0 --168533 -165677 -166590 --167489#0 -169243 -165789#0 -166547 --167149 --168347 --165568#2 -168928#0 --166074#1 --169115#2 --165414#0 --169449#3 -167291#1 --168819#0 -167301#2 -166779#1 --167464#1 --165777#0 --168852#1 --166208#10 -169588 -165670#1 --168285#1 -165259 -167654 -168045#5 --168940 -166398#1 -166948#3 -168151 --166015#2 -166200#2 -166352#2 -167697#0 -167807#3 --165216#0 -165450#4 --168990#1 --165951 --165413#3 --167881#6 -165566#0 -165755#1 -167209#0 --165433 -167096#2 --167523#1 -165392#13 --165651 -167175#1 --168958 -169482 --166076#0 -165392#3 --166193#2 -167758#3 --167188#7 -166023 -168696#0 -169032#3 -167767#8 -167679#1 -168045#0 -165785 -168509#0 --166404#6 --166768#0 -165429 -168104 -166859#5 --165730#0 --167807#8 -165413#9 --165821 --165698 -167094#3 --169147#1 --165623#0 -167135#2 --166107#4 --168691 -166922#5 -167759 --166121#1 -166777#4 -166859#3 --166949#0 -166538#1 -165392#5 -166510#1 -168222#0 -168818#5 --167806 --168915 -169528#2 -168285#1 --166843 -169544#0 --168271 -168994#1 --165933#4 --166658 --169528#6 -165265#1 -165258#3 --169264#0 -166888 -168559#5 --168813#4 -165514 -168390 -167114#0 -168559#10 -165623#1 -166948#0 -167097#5 -165777#1 -165451#0 -169566#5 -169183#0 --168706#5 -166030 -165845#0 --168893 --168990#0 -167644#0 -166026 -167644#3 -167960 -168552#0 -168870#0 -165851#11 -165513#3 -167399 --165451#1 -167604#0 -168467#1 -166984 -168706#3 --167540#2 -168445#0 --167760 -168680#2 --165227#1 -166404#1 -167796 --165477 -167546#5 --166975#2 -166668#1 -166599#0 -165701#0 -167942#0 -169196 --165203 --168277#2 --167150#2 -167620#1 --167172 -168277#0 -166484#2 -169528#5 -169007 -165842 --168113 -168278#2 -166646 -169336 -168937#2 --168489#1 --167907#2 --166698#2 --168762#1 --165271#1 -167697#1 --167307#1 --166107#2 -165567#0 --166462#2 --168543#2 --169566#6 --166734 -165534#1 --166334 -165618#0 --168649 --167807#6 -165589#1 -168471#10 --167644#2 -165830#0 -165392#25 --168706#4 -168020#1 -168453 -169410 -167301#3 -165998#0 -166794#0 --165413#6 -166820#0 -167096#1 -166442#5 --167942#1 -167627 --165549#0 -168990#0 -166618 --167981#1 -165607 --166496 --167216#1 --166612#1 -168587#1 --168952 -168758 -166074#1 -166612#0 -167782#0 -169068 -167188#0 -167097#1 -168461 -168160 --167880 --165265#2 --167313 --167199#0 -167131 -168326 -166041 --167251 --168697 --168582#1 --165429 -169535#5 --166032#1 --168202 --168834 -168081#3 --167141 --167249#1 -168278#3 -168818#4 --167630#1 -167176#0 --166956#0 --168278#2 -168533 -169499 --169083#1 --165818#2 --168511 -168916#9 -167646#2 --167758#0 --167774#1 -166900 -169115#2 --165224#3 --167094#4 -168108#4 -169489#1 -167553#1 --168402 --169256 -166478 -167528#19 --168653 -167762 -167967 -169528#7 --165807#0 -165579#2 --167150#3 -165489#0 --167834#1 -169535#1 --169449#0 -167199#2 --167790#1 -169543#0 -165960#1 -167775#1 -167899#1 -169200 -166739 -169535#0 -166177 --166484#0 --166768#2 -167199#1 --168411 -169147#1 --167599#1 --165269 -169441#0 -169264#1 --165216#2 --166779#0 --167175#1 --168818#0 -166819#0 --166327#1 --169533#3 --167307#2 --166516#1 --168159 -166329 -166859#2 --169587 --167541#0 -168732 --169062 --169566#2 -166193#1 -167790#1 -166794#3 -167882#0 --169386 -168994#0 --167175#0 --166478 --168108#4 --165982#5 -166819#4 -166484#3 -169029#1 -165739#1 --166949#4 --169328 -166051 -168543#4 -166610 -169498#2 -166211#2 --166783 --167524#1 --165356#0 --169069 -166088#0 --166433 --166288 -168402 -167188#5 -168813#0 -165271#0 --165529 -168908#4 -165367#0 -166362 --168543#3 -167096#6 -168241#1 -168285#2 --166404#5 -166820#3 -166510#0 --166859#0 -168471#8 -165599 -169566#9 -166956#4 -168509#3 --168266#0 --166208#8 -165736 --168573 --167286 -165489#3 --165487 --167150#1 -167345#2 --166949#5 -167524#1 --166331#0 -167176#2 --167834#0 --166859#2 -167082 -166282#0 --165338 --167414 --166510#1 -165392#16 -168088#0 -165645 -168380#1 -168380#0 -166881 -168429 -165825#1 -166101 -168509#4 -169046 --165387#0 --166510#0 -165589#5 --168696#0 --167075#1 --168783 -168916#8 --165450#4 -166845 -168609#3 -167103 -165998#1 --168127#1 --166985#0 -169566#1 -167320#1 -167892 -168023#1 -168503#0 -169376#1 -167075#3 -167664 -166319#0 -167546#0 -165695#2 -168850#2 --167097#4 --166818#2 -166956#3 --167301#2 -167219#1 --166178#0 --169029#1 -165203 -165701#1 -168524#2 --165818#1 --165493#0 --169240 --166312 -168838#0 --168765#0 -166314#1 -166819#2 --166859#4 -166400 -165680#1 -167803 -169489#0 --168762#0 -168955#1 --166739 -166486 -165207 -167276#1 -165739#0 --165998#0 -165414#1 -165380 -166750#0 -165232 -167286 -166922#2 -167276#5 -166626 --169498#2 --165761#4 -166949#0 --165845#2 -166416#2 --168524#1 --167472 -168263 -165216#1 -167546#1 --166442#4 --169115#3 --167050 --165414#1 --168277#3 -165392#20 --166612#8 -168311#1 --166010#3 -165404#0 -167539#0 --166404#3 --169524 --169566#0 -166778 -167782#1 -168031#1 -165937#1 --165811 --168081#3 -166495 -166769#1 -168852#2 -169449#1 --167569#1 --166015#1 --166819#0 --167983#0 -165392#23 -168887#8 --166208#0 -165825#0 -166208#0 -168241#4 --169441#1 -166818#1 --167094#0 --166610 --169243 -167807#2 --168005#0 -166612#9 -167775#0 --167620#1 -167775#3 -165765#3 -169528#0 --168471#6 -166985#0 -166968#2 --167030 -168908#1 -169333#0 -167250#2 -165894#0 -169361#1 --168412#5 -166949#5 -168171#0 -169553#1 -165730#1 --167219#1 -167553#0 -169252 --169535#0 -169465#1 --169083#0 -169544#3 -167472 -166208#5 -166702 -165458 -166565#3 -167807#1 --169200 -166404#4 -165826#0 -169566#8 -166565#2 -167630#3 --168503#0 -165845#2 -167511#0 -168883#0 -167346#0 -167980 -167464#1 --168483 -169137#6 --167881#7 -165830#2 -165979 -167345#1 -168059#1 -168609#1 --167878 --167541#3 --169324 --169005#1 --168109#2 --165670#1 -166169#3 --167852#2 -168559#7 -167175#0 -168813#1 -167097#0 -168818#6 -167546#4 --166956#3 -168916#4 -169137#3 --166193#1 -165370#1 -166982#0 -165413#2 -166099#0 -167907#0 --167046#1 --167483 --168867#0 -168743#2 -165392#18 -168800#1 -167528#15 --168453 --169000 --169489#1 -166612#14 --166612#9 -167212 -165619 -166956#1 -165761#1 --166464#1 --167540#0 -169182 -165552 -167630#0 -166036 -167273#1 --167679#1 -167396#1 -168247 -165986#0 -165704#1 -169093#2 --168104 --167960 --168855 -165413#0 -167773 --165998#1 -167524#2 -167777 --166948#3 -166612#10 -169498#1 -168045#1 --168813#1 --165507 -166612#12 -166256 --166859#5 --167553#0 --169003 -165227#1 -165811 --168738#1 --168949#3 --165848 -168435#0 -166010#3 --169361#0 -165293#2 -169137#4 --169029#0 -165733#0 -165224#0 --168680#3 -166731#1 -168396 --167696 --166178#1 --168080 -168903#0 -168022 --167097#5 --167644#0 --167899#1 --168380#3 --167310 -166312 -169165#1 -167881#7 --169083#2 --165511 -166612#1 -167546#2 --167097#1 -167528#16 --166416#0 -165362#2 -168176#7 -166510#2 --167001 -165228#4 -165937#0 -168475#0 -168503#1 --166404#1 -166404#5 -165542#1 -168929#1 -168109#1 -168813#2 --167903 --167936 -167213#2 -166612#8 --165568#1 -167780#0 -169106 -167444#0 -167396#2 --165933#3 -165413#11 -167414 -166322#1 -168176#1 -165898#1 --167630#2 -166808#1 --167907#0 --168471#9 -167852#0 -165629 -168363#1 -168950 --166200#2 -166327#0 -167134#0 -165891#0 -168076 -168285#0 --165227#2 -165361#1 -168380#3 --165224#0 -168421 -168464#2 --166936#0 -167767#6 -168397#2 -165761#4 --167188#5 --169499 --167046#0 --165413#2 -168048 --166827 --165413#1 --165931 -166442#4 -166736#0 -166509#2 -168030 --168503#1 -166538#0 -167141 -167510#0 -167767#12 --168543#4 -165982#1 --165933#5 -165404#7 -168838#1 -165719#1 --167489#1 -168363#2 -168622 -165982#2 -168027#0 -169528#6 -168230#3 --165898#0 -166823 --166319#0 --166956#4 --169286 --166956#1 -168174 --168765#1 --169535#1 --167852#0 --167212 -165826#1 -167758#1 --169441#0 -167307#2 -167981#1 --167094#2 -168928#2 --168788 --167350#2 -165869 -169180 -169256 --167505#1 -166770#0 --165552 --168552#2 -165710 -169553#0 --166618 --167455 -166208#7 -168609#4 --167541#2 --167507 -165728#2 --167088#1 --167620#2 -168887#7 -167767#4 --166070#1 -166171#0 --166398#3 -166936#0 -168098 -165477 --165796#0 --166015#0 -169391#1 --169544#0 --166331#1 -166379 --167594#0 -166107#1 --165820 --168471#3 --166138 --169482 -166424#0 -167115 -167313 -167976 -167807#0 --168696#1 --168953 --167216#2 -166635#2 -169364 -169566#3 --168503#2 --165818#0 -168908#2 --166881 --167442 --168645#0 -165404#10 -168182 --167522 -167553#2 -168677 -168795 -165346 -166949#2 -168273 -165568#0 --169373#1 --168928#0 --166513 -166386#2 -168363#3 -167199#0 -165695#1 --168109#1 --168020#3"/>
    <!-- id="-1897" name="Hay Hassani nord" -->