<?xml version="1.0" encoding="UTF-8"?>

<!-- Generated with SUMO Activity-Based Mobility Generator [https://github.com/lcodeca/SUMOActivityGen] -->

<routes xmlns:xsi="http://www.w3.org/2001/XMLSchema-instance" xsi:noNamespaceSchemaLocation="http://sumo.dlr.de/xsd/routes_file.xsd"> 
    <vehicle id="on-demand.0" type="on-demand" depart="0.0">
        <route edges="--167935#4"/>
        <stop lane="--167935#4_1" startPos="1.0" endPos="-1.0" triggered="person"/>
    </vehicle>
    <vehicle id="on-demand.1" type="on-demand" depart="0.0">
        <route edges="--169062"/>
        <stop lane="--169062_1" startPos="1.0" endPos="-1.0" triggered="person"/>
    </vehicle>
    <vehicle id="on-demand.2" type="on-demand" depart="0.0">
        <route edges="-168783"/>
        <stop lane="-168783_1" startPos="1.0" endPos="-1.0" triggered="person"/>
    </vehicle>
    <vehicle id="on-demand.3" type="on-demand" depart="0.0">
        <route edges="-165893#3"/>
        <stop lane="-165893#3_1" startPos="1.0" endPos="-1.0" triggered="person"/>
    </vehicle>
    <vehicle id="on-demand.4" type="on-demand" depart="0.0">
        <route edges="--166007"/>
        <stop lane="--166007_1" startPos="1.0" endPos="-1.0" triggered="person"/>
    </vehicle>
    <vehicle id="on-demand.5" type="on-demand" depart="0.0">
        <route edges="-168045#1"/>
        <stop lane="-168045#1_1" startPos="1.0" endPos="-1.0" triggered="person"/>
    </vehicle>
    <vehicle id="on-demand.6" type="on-demand" depart="0.0">
        <route edges="-169352#4"/>
        <stop lane="-169352#4_1" startPos="1.0" endPos="-1.0" triggered="person"/>
    </vehicle>
    <vehicle id="on-demand.7" type="on-demand" depart="0.0">
        <route edges="--165694#2"/>
        <stop lane="--165694#2_1" startPos="1.0" endPos="-1.0" triggered="person"/>
    </vehicle>
    <vehicle id="on-demand.8" type="on-demand" depart="0.0">
        <route edges="-166982#1"/>
        <stop lane="-166982#1_1" startPos="1.0" endPos="-1.0" triggered="person"/>
    </vehicle>
    <vehicle id="on-demand.9" type="on-demand" depart="0.0">
        <route edges="-167123#1"/>
        <stop lane="-167123#1_1" startPos="1.0" endPos="-1.0" triggered="person"/>
    </vehicle>
    <vehicle id="-1919_-1932_5_tr" type="motorcycle" depart="triggered">
        <route edges="--166364#5 -166634 --166634 -166364#5 -166364#7 -166173#2 -166173#3 -166173#4 -166173#5 -166173#6 -166173#7 -169352#0 -169352#2 -169352#4 -167528#2 -167528#5 -167528#7 -167528#9 -167528#10 -167528#12 -167528#14 -167528#15 -167528#16 -167528#17 -167528#18 -167528#19 -167528#20 -169172#4 -165557#0 -165557#1 -165557#2 -165557#3 -165557#4 -168741#0 -168741#1 -168741#2 -165256#1 -165256#2 -165256#3 --165866#3 --165866#2 --165866#1 -168228 -168210#2 -168165#9 -168165#10 -168165#11 -168165#12 -169404#4 -169404#5 -169404#6 -169404#7 -169404#9 -169404#11 -169404#12 -169404#13 -169404#14 -169404#15 -169404#16 -169404#17 -169404#18 -166328#1 -166328#2 -166328#3 -169009#0 -169009#1 -169009#2 -169009#3 -169009#4 -169009#5 -169009#6 -168963#0 -168963#1 -168963#2 -168963#3 -168975#2 -168975#3 -168033#0 -168033#4 -168033#5 -168033#6 -168033#7 -168631#0 -168631#1 -168484 -166978 -166173#0 -166173#1 --166364#8 --166364#5"/>
        <stop parkingArea="-593750" triggered="true" expected="-1919_-1932_5"/>
        <stop lane="--166364#5_1" duration="1.0"/>
    </vehicle>
    <person id="-1919_-1932_5" type="pedestrian" depart="71921.29">
        <ride from="--166364#5" to="--165866#3" arrivalPos="97.83" lines="-1919_-1932_5_tr"/>
        <walk edges="--165866#3 --165866#5 --165866#6 --165866#7 -169110#2 -169110#1 -166144#10 -166144#9 -166144#8" arrivalPos="89.655"/>
        <stop lane="-166144#8_0" duration="1859.0209679235581" actType="P-Groceries"/>
        <walk edges="-166144#8 -166144#9 -166144#10 -165846 -165217#7 -165217#8 -169555#0 --165866#6 --165866#5 --165866#3" arrivalPos="97.83"/>
        <ride from="--165866#3" to="--166364#5" arrivalPos="27.335958455592905" lines="-1919_-1932_5_tr"/>
        <stop lane="--166364#5_0" duration="1.0" actType="Home"/>
    </person>
    <vehicle id="-1932_-1932_7_tr" type="motorcycle" depart="triggered">
        <route edges="--167795#11 --167795#10 --167795#9 --167795#8 --167795#7 --167795#6 --167795#4 --167795#3 --167795#2 --167795#1 --167795#0 --167466#0 --167038#1 --166323#3 --166323#2 --166323#1 --166323#0 --167458#6 --167458#5 --167458#4 --167458#3 --167458#2 --167458#1 --166500#1 --166500#0 -168597#3 -168597#4 -168597#5 -168597#6 -166145#7 -166145#8 -166145#9 -166145#10 -166145#11 -166145#12 -166145#13 -166145#14 -168340#0 -165258#0 -165258#1 -165258#2 -165258#3 -168174 -167071#0 -167071#1 -166267#0 -166267#1 -166267#2 --167957#1 --167957#0 --167795#14 --167795#13 --167795#11"/>
        <stop parkingArea="-599676" triggered="true" expected="-1932_-1932_7"/>
        <stop lane="--167795#11_1" duration="1.0"/>
    </vehicle>
    <person id="-1932_-1932_7" type="pedestrian" depart="73150.47">
        <ride from="--167795#11" to="-168597#3" arrivalPos="25.625873715212034" lines="-1932_-1932_7_tr"/>
        <walk edges="-168597#3 --166500#0 --166500#1 --166500#2 --168684#0 --168684#2 --167828#0 -165893#2" arrivalPos="43.82"/>
        <stop lane="-165893#2_0" duration="2216.878771138722" actType="P-Groceries"/>
        <walk edges="-165893#2 --167828#0 --168684#2 --168684#0 --166500#2 --166500#1 --166500#0 -168597#3" arrivalPos="25.625873715212034"/>
        <ride from="-168597#3" to="--167795#11" arrivalPos="17.89254663994649" lines="-1932_-1932_7_tr"/>
        <stop lane="--167795#11_0" duration="1.0" actType="Home"/>
    </person>
    <vehicle id="-1919_-1949_3_tr" type="passenger" depart="triggered">
        <route edges="-167583#2 -167583#4 -168033#4 -168033#5 -168033#6 -168033#7 -168631#0 -168631#1 -167616#0 -167616#1 -167614#1 -167614#2 -167614#3 --165799#2 --169359#1 --169480#4 --167390#1 --167390#0 --168168#1 --168168#0 -169131#1 -167891#3 -167891#4 -167891#5 -167891#6 -167891#7 -167891#8 -165423#1 -165423#2 -165423#3 -165423#4 -165423#5 -165444 -168992#0 -168992#1 -168992#2 -165728#2 -165728#3 -165728#4 -165361#0 -168883#0 -167546#0 -167546#1 -167546#2 -167546#3 -167546#4 -167546#5 -168883#4 -165851#16 -165851#17 -165851#18 -165851#19 -165851#22 -165851#23 -167583#1 -167583#2"/>
        <stop parkingArea="-586774" triggered="true" expected="-1919_-1949_3"/>
        <stop lane="-167583#2_1" duration="1.0"/>
    </vehicle>
    <person id="-1919_-1949_3" type="pedestrian" depart="74134.26">
        <ride from="-167583#2" to="--167390#1" arrivalPos="47.349999999999994" lines="-1919_-1949_3_tr"/>
        <walk edges="--167390#1 --169480#4 --169359#1 -165799#1 --169125 --167083#0 --167593#2 -165431" arrivalPos="85.08"/>
        <stop lane="-165431_0" duration="738.8414141888509" actType="P-Groceries"/>
        <walk edges="-165431 --167593#2 -167083#0 --169125 -165799#1 --169359#1 --169480#4 --167390#1" arrivalPos="47.349999999999994"/>
        <ride from="--167390#1" to="-167583#2" arrivalPos="38.21027691106589" lines="-1919_-1949_3_tr"/>
        <stop lane="-167583#2_0" duration="1.0" actType="Home"/>
    </person>
    <vehicle id="-1903_-1891_3_tr" type="passenger" depart="triggered">
        <route edges="--165866#0 --166335#1 -168210#0 -168210#1 -168210#2 -168165#9 -168165#10 -168165#11 -168165#12 -169583#0 -169583#1 -169583#2 -169583#3 -169583#4 -169583#5 -167923#0 -167923#1 -166267#0 -166267#1 -166267#2 -166267#3 -166267#4 -166267#5 -166267#6 -166267#7 -166267#8 -166267#9 -166267#10 -166267#11 -168059#0 -168059#1 -167942#0 -167942#1 -169179#1 -169179#3 -169179#4 -166583#0 -166948#0 --165568#4 --165568#3 --165568#2 -167138 --166534 --169286 --167835 --168048 --168471#10 --168471#9 --168471#8 --168471#6 --168471#4 --168471#3 --168471#1 -169268#0 -169268#1 -165258#0 -165258#1 -165258#2 -165258#3 -168174 -167071#0 -167071#1 -169172#1 -169172#2 -169172#4 -165557#0 -165557#1 -165557#2 -165557#3 -165557#4 -168741#0 -168741#1 -168741#2 -165256#1 -165256#2 -165256#3 --165866#3 --165866#2 --165866#1 --165866#0"/>
        <stop parkingArea="-587239" triggered="true" expected="-1903_-1891_3"/>
        <stop lane="--165866#0_1" duration="1.0"/>
    </vehicle>
    <person id="-1903_-1891_3" type="pedestrian" depart="74201.61">
        <ride from="--165866#0" to="-167138" arrivalPos="38.66" lines="-1903_-1891_3_tr"/>
        <walk edges="-167138 --165568#2 --165568#3 -167835 -169074" arrivalPos="39.965"/>
        <stop lane="-169074_0" duration="3161.416193935885" actType="P-Groceries"/>
        <walk edges="-169074 -165719#0 --165568#0 --165568#1 -167138" arrivalPos="38.66"/>
        <ride from="-167138" to="--165866#0" arrivalPos="118.61238647983818" lines="-1903_-1891_3_tr"/>
        <stop lane="--165866#0_0" duration="1.0" actType="Home"/>
    </person>
    <vehicle id="-1903_-1897_3_tr" type="motorcycle" depart="triggered">
        <route edges="-166122#5 -168951#7 -166220#11 -166220#12 -166220#13 -166220#14 -165256#1 -165256#2 -165256#3 -165688#1 -165688#2 -165688#3 -165688#6 -165688#7 -165688#8 -165688#9 -165688#10 -165688#11 -165688#12 -165688#13 -169110#8 -169110#9 -169110#10 -169380#0 -168720#1 -167658 -168436#0 -168436#2 -169508 -166623#0 -166623#1 -166623#2 -166623#3 -166623#4 -166720#1 -166720#2 -166720#3 -166720#5 --167766#5 --167766#4 --167766#3 --169065#0 -166381#0 -166381#1 -168997#10 -167766#2 -167766#3 -167766#4 -167766#5 -166562#0 -166512 -166840#2 -166840#3 -166840#4 -166840#5 -166840#6 -165395#0 -165395#1 -167855 -167161#1 -167161#2 -167161#3 -167161#4 -167161#7 -167161#8 -167161#9 -167447#0 -167447#1 -167447#2 -168741#4 -168741#5 -168741#6 -168741#7 -168741#8 -166474#1 -166474#2 -168951#2 -166122#0 -166122#1 -166122#2 -166122#3 -166122#4 -166122#5"/>
        <stop parkingArea="-596582" triggered="true" expected="-1903_-1897_3"/>
        <stop lane="-166122#5_1" duration="1.0"/>
    </vehicle>
    <person id="-1903_-1897_3" type="pedestrian" depart="74264.54">
        <ride from="-166122#5" to="-168997#10" arrivalPos="47.47557699194884" lines="-1903_-1897_3_tr"/>
        <walk edges="-168997#10 -166381#1 -166381#0 -168264#2 -168264#1 --165237#0 --168812#1 -168501#1" arrivalPos="30.34"/>
        <stop lane="-168501#1_0" duration="2546.741008483805" actType="P-Groceries"/>
        <walk edges="-168501#1 -168501#0 --166460#5 -168264#1 -168264#2 -166381#0 -166381#1 -168997#10" arrivalPos="47.47557699194884"/>
        <ride from="-168997#10" to="-166122#5" arrivalPos="17.431941571567574" lines="-1903_-1897_3_tr"/>
        <stop lane="-166122#5_0" duration="1.0" actType="Home"/>
    </person>
    <vehicle id="-1919_-1919_66_tr" type="passenger" depart="triggered">
        <route edges="-168233#5 -167614#2 -167614#3 --165799#2 --169359#1 --169480#4 --167390#1 --167390#0 --168168#1 -169359#0 -169359#1 -165799#2 -169307#0 -169307#1 -169307#2 -167337 -167987#0 -167987#1 -167987#2 -168233#1 -168233#2 -168233#3 -168233#4 -168233#5"/>
        <stop parkingArea="-586774" triggered="true" expected="-1919_-1919_66"/>
        <stop lane="-168233#5_1" duration="1.0"/>
    </vehicle>
    <person id="-1919_-1919_66" type="pedestrian" depart="74921.88">
        <ride from="-168233#5" to="--167390#1" arrivalPos="47.349999999999994" lines="-1919_-1919_66_tr"/>
        <walk edges="--167390#1 --169480#4 --169359#1 -165799#1 --169125 --167083#0 --167593#2 --165431" arrivalPos="85.08"/>
        <stop lane="--165431_0" duration="786.2771448261286" actType="P-Groceries"/>
        <walk edges="--165431 -165437#4 -165437#5 -165437#6 --165799#2 --169359#1 --169480#4 --167390#1" arrivalPos="47.349999999999994"/>
        <ride from="--167390#1" to="-168233#5" arrivalPos="113.86879225328245" lines="-1919_-1919_66_tr"/>
        <stop lane="-168233#5_0" duration="1.0" actType="Home"/>
    </person>
    <vehicle id="-1949_-1919_2_tr" type="motorcycle" depart="triggered">
        <route edges="--167881#7 --167881#6 --167881#5 --167881#4 --167881#3 --167881#2 --167881#1 --167881#0 -167881#0 -167881#1 -167881#2 -167881#3 -167881#4 -167881#5 -167881#6 -167881#7 -167881#8 -168230#2 -168230#3 -167346#0 -167346#1 -165680#1 -165680#2 -165728#0 -165728#1 -165728#2 -165566#0 -165566#1 -165566#2 -165566#3 -165566#4 -165566#5 -165566#11 -165566#12 -165566#13 -165482#0 -165482#1 -165482#2 -165482#3 -167322#0 -167322#1 -167322#2 -166978 -166173#0 -166173#1 --166364#8 -167895 --167895 -166364#7 -166173#2 -166173#3 -166173#4 -166173#5 -166173#6 -166173#7 -169352#0 -169352#2 -169352#4 -167528#2 -167528#5 -167528#7 -167528#9 -167528#10 -167528#12 -168951#19 -168088#0 -168088#1 -168951#21 -168951#22 -166484#1 -166484#2 --167273#2 --167273#1 --167881#8 --167881#7"/>
        <stop parkingArea="-597533" triggered="true" expected="-1949_-1919_2"/>
        <stop lane="--167881#7_1" duration="1.0"/>
    </vehicle>
    <person id="-1949_-1919_2" type="pedestrian" depart="74940.03">
        <ride from="--167881#7" to="--166364#8" arrivalPos="118.53999999999999" lines="-1949_-1919_2_tr"/>
        <walk edges="--166364#8 -166173#1 -166188#5 -167322#1 -167322#0 -165267#0 -169267#3 -165783#1 -165783#2" arrivalPos="280.215"/>
        <stop lane="-165783#2_0" duration="1931.3114406043421" actType="P-Groceries"/>
        <walk edges="-165783#2 -165783#1 -169267#3 -165267#0 -167322#0 -167322#1 -167322#2 -166978 -166173#0 -166173#1 --166364#8" arrivalPos="118.53999999999999"/>
        <ride from="--166364#8" to="--167881#7" arrivalPos="10.107075765914484" lines="-1949_-1919_2_tr"/>
        <stop lane="--167881#7_0" duration="1.0" actType="Home"/>
    </person>
    <vehicle id="-1897_-1903_4_tr" type="motorcycle" depart="triggered">
        <route edges="-169556 -169412#13 -169412#14 -169412#15 -169412#16 --167898#4 --167898#3 --167898#2 --167898#1 --167898#0 --166704#8 --166704#7 --166704#6 --166704#5 --166704#4 --166704#2 --166704#1 --166704#0 --166996#5 --166996#4 -167589#0 -167589#1 -167589#2 -167589#3 -167589#4 -166145#0 -166145#1 -166145#2 -166145#3 -166145#4 -166145#5 -166145#7 -166145#8 -166145#9 -166145#10 -166145#11 -166145#12 -166145#13 -166145#14 -168340#0 -165258#0 -165258#1 -165258#2 -165258#3 -168174 -167071#0 -167071#1 -169172#1 -169172#2 -165851#1 -165851#2 -165851#3 -165851#4 -165851#5 -165851#6 -165851#7 -165851#8 -165851#9 -165851#10 -165851#11 -165851#12 -165851#14 -168883#8 -168883#9 -168883#10 -168883#11 -168883#12 -166220#9 -166220#11 -166220#12 -166220#13 -166220#14 -165256#1 -165256#2 -165256#3 -165688#1 -165688#2 -165688#3 -165688#6 -165688#7 -165688#8 -165688#9 -165688#10 -165688#11 -165688#12 -165688#13 -169110#8 -169110#9 -169110#10 -169380#0 -168720#1 -167658 -168436#0 -168436#2 -169508 -166623#0 -166623#1 -166623#2 -166623#3 -166623#4 -166720#1 -166720#2 -166720#3 -166720#5 --167766#5 --167766#4 --167766#3 --167766#2 --167766#1 --167766#0 --166490#3 --166490#2 --166490#1 --166490#0 --167264#10 --167264#9 --167264#8 --167264#7 --167264#6 --167264#5 --167264#4 --167264#3 --167264#2 --167264#1 --167264#0 -169412#8 --168779 -168909#5 -168909#6 -168909#7 -169556"/>
        <stop parkingArea="-594989" triggered="true" expected="-1897_-1903_4"/>
        <stop lane="-169556_1" duration="1.0"/>
    </vehicle>
    <person id="-1897_-1903_4" type="pedestrian" depart="75502.88">
        <ride from="-169556" to="-168883#11" arrivalPos="55.56" lines="-1897_-1903_4_tr"/>
        <walk edges="-168883#11 -169116#2 -169116#1 -168951#12 -168951#11 -169404#7 -169404#6" arrivalPos="113.555"/>
        <stop lane="-169404#6_0" duration="1966.0108316468331" actType="P-Groceries"/>
        <walk edges="-169404#6 -169404#7 -167244#1 -167244#2 -168883#12 -168883#11" arrivalPos="55.56"/>
        <ride from="-168883#11" to="-169556" arrivalPos="40.56798354397823" lines="-1897_-1903_4_tr"/>
        <stop lane="-169556_0" duration="1.0" actType="Home"/>
    </person>
    <vehicle id="-1903_-1903_3_tr" type="passenger" depart="triggered">
        <route edges="--168934 --168044#4 --168044#3 --168044#1 --168044#0 -169530#0 -169530#1 -169530#2 -167314#0 -167314#1 -167528#10 -168883#8 -168883#9 -168883#10 -168883#11 -168883#12 -169404#11 -169404#12 -169404#13 -169404#14 -169404#15 -169404#16 -169404#17 -169404#18 -166773#4 --168934"/>
        <stop parkingArea="-594989" triggered="true" expected="-1903_-1903_3"/>
        <stop lane="--168934_1" duration="1.0"/>
    </vehicle>
    <person id="-1903_-1903_3" type="pedestrian" depart="75739.5">
        <ride from="--168934" to="-168883#11" arrivalPos="55.56" lines="-1903_-1903_3_tr"/>
        <walk edges="-168883#11 -168883#12 -169404#11 -169404#12" arrivalPos="68.6"/>
        <stop lane="-169404#12_0" duration="2481.390338744818" actType="P-Groceries"/>
        <walk edges="-169404#12 -169404#11 -168883#12 -168883#11" arrivalPos="55.56"/>
        <ride from="-168883#11" to="--168934" arrivalPos="42.90310768585754" lines="-1903_-1903_3_tr"/>
        <stop lane="--168934_0" duration="1.0" actType="Home"/>
    </person>
    <vehicle id="-1932_-1932_6_tr" type="passenger" depart="triggered">
        <route edges="--168864 -167321#11 -167321#12 -167321#14 -165270 -166267#11 -168105#4 -168340#0 -165258#0 -165258#1 -165258#2 -165258#3 -168174 -167071#0 -167071#1 -169172#1 -169172#2 -169172#4 -165557#0 -165557#1 -165557#2 -165557#3 -165557#4 -168741#0 -168741#1 -168741#2 -165256#1 -165256#2 -165256#3 --165866#3 --165866#2 --165866#1 -168228 -168210#2 -168165#9 -168165#10 -168165#11 -168165#12 -169583#0 -169583#1 -169583#2 -169583#3 -169583#4 -169583#5 -167923#0 -167923#1 -166267#0 -166267#1 -166267#2 -166267#3 -166267#4 -166267#5 -166267#6 -166267#7 --168864"/>
        <stop parkingArea="-593750" triggered="true" expected="-1932_-1932_6"/>
        <stop lane="--168864_1" duration="1.0"/>
    </vehicle>
    <person id="-1932_-1932_6" type="pedestrian" depart="75740.95">
        <ride from="--168864" to="--165866#3" arrivalPos="97.83" lines="-1932_-1932_6_tr"/>
        <walk edges="--165866#3 -165688#1 -165688#2 -165688#3 -165569#0 -167577#19 -167577#20 -167338#1 -165688#9 -165688#10 -165688#11 -165688#12 -165688#13 -169110#8 --168599 -169110#10 -169380#0 -168720#1 -167658 -168436#0 -168436#2 -168739#0 -168739#1 -168391#1 -166623#1 -166623#2" busStop="-589519"/>
        <walk edges="-166840#5 -166840#6 -165395#0 -165395#1" arrivalPos="70.295"/>
        <stop lane="-165395#1_0" duration="2823.6753493913775" actType="P-Groceries"/>
        <walk edges="-165395#1 -165395#0 -166840#6 -166840#5" busStop="-589519"/>
        <walk edges="-166623#2 -166623#1 -168391#1 -168739#1 -165268#0 -166109 -168877#4 -168436#0 -167658 -168720#1 -169380#0 -169110#10 --168599 -169110#8 -165688#13 -165688#12 -166557#1 -167625#1 -166532#1 -167338#0 -165688#8 -165688#7 -165688#6 -165688#3 -165688#2 -165688#1 --165866#3" arrivalPos="97.83"/>
        <ride from="--165866#3" to="--168864" arrivalPos="10.321516586763597" lines="-1932_-1932_6_tr"/>
        <stop lane="--168864_0" duration="1.0" actType="Home"/>
    </person>
    <vehicle id="-1903_-1903_4_tr" type="motorcycle" depart="triggered">
        <route edges="--168419#1 -169352#4 -167528#2 -167528#5 -167528#7 -167528#9 -167528#10 -167528#12 -167528#14 -167528#15 -167528#16 -167528#17 -167528#18 -167528#19 -167528#20 -169172#4 -165557#0 -165557#1 -165557#2 -165557#3 -165557#4 -168741#0 -168741#1 -168741#2 -168741#4 -168741#5 -168741#6 -168741#7 -168741#8 -166474#1 -166474#2 -168951#2 -166122#0 -166122#1 -166122#2 -166122#3 -166122#4 -166122#5 -168951#7 -169404#9 -169404#11 -169404#12 -169404#13 -169404#14 -169404#15 -169404#16 -169404#17 -169404#18 -166328#1 -166328#2 -166328#3 -169009#0 -169009#1 -169009#2 -169009#3 -169009#4 -169009#5 -169009#6 -168963#0 --168921 -168924#3 -168924#4 --168419#1"/>
        <stop parkingArea="-604714" triggered="true" expected="-1903_-1903_4"/>
        <stop lane="--168419#1_1" duration="1.0"/>
    </vehicle>
    <person id="-1903_-1903_4" type="pedestrian" depart="75770.19">
        <ride from="--168419#1" to="-166122#2" arrivalPos="12.5" lines="-1903_-1903_4_tr"/>
        <walk edges="-166122#2 -166122#1 -165302#4 -165302#3 -165302#2 -165302#1 -165302#0 --167570#1" arrivalPos="56.21"/>
        <stop lane="--167570#1_0" duration="2617.0522456226518" actType="P-Groceries"/>
        <walk edges="--167570#1 -165302#0 -165302#1 -165302#2 -165302#3 -165302#4 -166122#1 -166122#2" arrivalPos="12.5"/>
        <ride from="-166122#2" to="--168419#1" arrivalPos="31.32762800528917" lines="-1903_-1903_4_tr"/>
        <stop lane="--168419#1_0" duration="1.0" actType="Home"/>
    </person>
    <vehicle id="-1919_-1919_7_tr" type="passenger" depart="triggered">
        <route edges="-165313#3 -165313#4 -165267#0 -165267#1 -167552 -167070#0 -167070#1 -167136 -167140#0 -167140#1 -167614#1 -167614#2 -167614#3 --165799#2 --169359#1 --169480#4 --167390#1 --167390#0 --168168#1 -169359#0 -169359#1 -165799#2 -165313#0 -165313#1 -165313#2 -165313#3"/>
        <stop parkingArea="-586774" triggered="true" expected="-1919_-1919_7"/>
        <stop lane="-165313#3_1" duration="1.0"/>
    </vehicle>
    <person id="-1919_-1919_7" type="pedestrian" depart="76097.29">
        <ride from="-165313#3" to="--167390#1" arrivalPos="47.349999999999994" lines="-1919_-1919_7_tr"/>
        <walk edges="--167390#1 --169480#4 --169359#1 --165799#2 -165437#6 -165437#5 -165437#4 -165437#3 -165437#2 -165437#1 -165437#0 -167677 -169049#6 -169049#5 -169049#4 -167690#3 -167987#4" arrivalPos="34.11"/>
        <stop lane="-167987#4_0" duration="1402.0799128173398" actType="P-Groceries"/>
        <walk edges="-167987#4 -167690#4 -167011#5 -167987#2 -167987#1 -167987#0 -168512 -167677 -165437#0 -165437#1 -165437#2 -165437#3 -165437#4 -165437#5 -165437#6 --165799#2 --169359#1 --169480#4 --167390#1" arrivalPos="47.349999999999994"/>
        <ride from="--167390#1" to="-165313#3" arrivalPos="35.730609074798025" lines="-1919_-1919_7_tr"/>
        <stop lane="-165313#3_0" duration="1.0" actType="Home"/>
    </person>
    <vehicle id="-1932_-1932_2_tr" type="motorcycle" depart="triggered">
        <route edges="--168184 -168166#4 -168166#5 -167838 -166267#5 -166267#6 -166267#7 -166267#8 -166267#9 -166267#10 -166267#11 -165240#0 -165240#1 -165240#2 -165240#3 -169415 -166990#2 -166990#3 -166990#4 -165261#1 -165261#2 -165261#4 -165261#5 -168597#0 -168597#1 -168597#2 -168597#3 -168597#4 -168597#5 -168597#6 -166145#7 -166145#8 -166145#9 -166145#10 -169254#2 -169254#4 -167081#1 -167081#2 -168410#1 -168410#2 -168410#3 -168410#4 -168410#5 -168410#6 -168410#7 -168410#8 -167542#4 -167542#5 -168166#0 -168166#2 -168184 --168184"/>
        <stop parkingArea="-599676" triggered="true" expected="-1932_-1932_2"/>
        <stop lane="--168184_1" duration="1.0"/>
    </vehicle>
    <person id="-1932_-1932_2" type="pedestrian" depart="76357.58">
        <ride from="--168184" to="-168597#3" arrivalPos="25.625873715212034" lines="-1932_-1932_2_tr"/>
        <walk edges="-168597#3 --166500#0 --166500#1 --166500#2" arrivalPos="26.865"/>
        <stop lane="--166500#2_0" duration="2290.039065825871" actType="P-Groceries"/>
        <walk edges="--166500#2 --166500#1 --166500#0 -168597#3" arrivalPos="25.625873715212034"/>
        <ride from="-168597#3" to="--168184" arrivalPos="51.77335509517488" lines="-1932_-1932_2_tr"/>
        <stop lane="--168184_0" duration="1.0" actType="Home"/>
    </person>
    <vehicle id="-1897_-1932_1_tr" type="motorcycle" depart="triggered">
        <route edges="-167267#2 -165853#7 -165853#8 -168997#2 -168997#3 -168997#4 -168997#5 -168997#6 -168997#8 -168997#9 -168997#10 --167766#1 --167766#0 --166996#13 --166996#12 --166996#11 --166996#10 --166996#9 --166996#8 --166996#7 --166996#6 --166996#5 --166996#4 -167589#0 -167589#1 -167589#2 -167589#3 -167589#4 -166145#0 -166145#1 --167635#3 --167635#2 --167635#1 --167635#0 -167635#0 -167635#1 -167635#2 -167635#3 --166145#1 --166145#0 --167589#4 --167589#3 --167589#2 --167589#1 --167589#0 -166996#4 -166996#5 -166996#6 -166996#7 -166996#8 -166996#9 -166996#10 -166996#11 -166996#12 -166996#13 -167766#0 -167766#1 --168997#10 --168997#9 --168997#8 -167856#0 --167373 -167267#1 -167267#2"/>
        <stop parkingArea="-589388" triggered="true" expected="-1897_-1932_1"/>
        <stop lane="-167267#2_1" duration="1.0"/>
    </vehicle>
    <person id="-1897_-1932_1" type="pedestrian" depart="76416.97">
        <ride from="-167267#2" to="-167635#3" arrivalPos="91.93" lines="-1897_-1932_1_tr"/>
        <walk edges="-167635#3 -167635#2 --167635#1 --169205 -167567#2 --167567#1" arrivalPos="56.255"/>
        <stop lane="--167567#1_0" duration="2250.4849547922736" actType="P-Groceries"/>
        <walk edges="--167567#1 --167567#2 --169205 --167635#1 --167635#2 -167635#3" arrivalPos="91.93"/>
        <ride from="-167635#3" to="-167267#2" arrivalPos="19.399693761568667" lines="-1897_-1932_1_tr"/>
        <stop lane="-167267#2_0" duration="1.0" actType="Home"/>
    </person>
    <vehicle id="-1903_-1891_1_tr" type="motorcycle" depart="triggered">
        <route edges="--168934 --168044#4 --168044#3 --168044#1 --168044#0 -169530#0 -169530#1 -169530#2 -167314#0 -167314#1 -167528#10 -167528#12 -168951#19 -168088#0 -168088#1 -168951#21 -168951#22 -166484#1 -166484#2 -166484#3 -165489#4 -165489#5 -165489#6 -165489#7 -166386#0 -166386#1 -167274#0 -165851#8 -165851#9 -165851#10 -165851#11 -165851#12 -165851#14 -165851#16 --167314#1 --167314#0 -166773#4 --168934"/>
        <stop parkingArea="-583877" triggered="true" expected="-1903_-1891_1"/>
        <stop lane="--168934_1" duration="1.0"/>
    </vehicle>
    <person id="-1903_-1891_1" type="pedestrian" depart="76530.92">
        <ride from="--168934" to="-166484#3" arrivalPos="90.3963726598337" lines="-1903_-1891_1_tr"/>
        <walk edges="-166484#3 -166484#2" arrivalPos="48.795"/>
        <stop lane="-166484#2_0" duration="2870.2480021284887" actType="P-Groceries"/>
        <walk edges="-166484#2 -166484#3" arrivalPos="90.3963726598337"/>
        <ride from="-166484#3" to="--168934" arrivalPos="121.8159576754624" lines="-1903_-1891_1_tr"/>
        <stop lane="--168934_0" duration="1.0" actType="Home"/>
    </person>
    <vehicle id="-1919_-1891_6_tr" type="motorcycle" depart="triggered">
        <route edges="--166066#2 --166184 -168498#2 -168498#3 -168498#5 -167891#3 -167891#4 -167891#5 -167891#6 -167891#7 -167891#8 -166597#1 -165843#1 -165843#2 -168359#1 -168445#0 -168445#1 --169264#1 --169264#0 -167807#0 -167807#1 -167807#2 -167807#3 -167807#4 -167807#5 -167807#6 -167807#7 -167807#8 -167505#0 -167505#1 --165683#1 --167942#1 --167942#0 --168059#1 --167540#2 --167540#1 --167540#0 -169460 -165258#1 -165258#2 -165258#3 -168174 -168800#1 -168270 -165825#0 -165825#1 -165825#2 -165825#3 -165589#1 -165589#2 -165589#5 -165589#6 -168230#2 -168230#3 -165346 -168397#0 -168397#1 -168397#2 -168397#5 -167396#0 -167396#1 -167396#2 -168400#2 -168400#3 -168400#4 -168400#5 -169394#1 -169394#2 -169394#3 -169394#4 -169394#5 -169394#6 -169394#7 -169022#3 -169022#4 -167154 -166066#0 --165875 --169285#1 --169285#0 -167370 --166066#2"/>
        <stop parkingArea="-598091" triggered="true" expected="-1919_-1891_6"/>
        <stop lane="--166066#2_1" duration="1.0"/>
    </vehicle>
    <person id="-1919_-1891_6" type="pedestrian" depart="76590.18">
        <ride from="--166066#2" to="--167540#1" arrivalPos="12.5" lines="-1919_-1891_6_tr"/>
        <walk edges="--167540#1 --167540#2 --169083#0 --169083#1 -167230#1" arrivalPos="62.865"/>
        <stop lane="-167230#1_0" duration="1501.3593277685445" actType="P-Groceries"/>
        <walk edges="-167230#1 --169083#1 --169083#0 --167540#2 --167540#1" arrivalPos="12.5"/>
        <ride from="--167540#1" to="--166066#2" arrivalPos="36.17376080431457" lines="-1919_-1891_6_tr"/>
        <stop lane="--166066#2_0" duration="1.0" actType="Home"/>
    </person>
    <vehicle id="-1919_-1919_73_tr" type="motorcycle" depart="triggered">
        <route edges="-167583#4 -168033#4 -168033#5 -168033#6 -168033#7 -168631#0 -168631#1 -167616#0 -167616#1 -167614#1 -167614#2 -167614#3 --165799#2 --169359#1 --169480#4 --167390#1 --167390#0 --168168#1 -169359#0 -169359#1 -165799#2 -169307#0 -169307#1 -169307#2 -167337 -167987#0 -167987#1 -167987#2 -167987#3 -167987#4 -167987#5 -165482#0 -165482#1 -165482#2 -165482#3 -167322#0 -167322#1 -167322#2 -166978 -166173#0 -166173#1 -166173#2 -166173#3 -166173#4 -166173#5 -166173#6 -166173#7 -166173#11 -167601#0 -167601#1 -167601#2 -169019 -169091 -168975#0 -168975#1 -168975#2 --167372#2 --167372#1 -167583#4"/>
        <stop parkingArea="-586774" triggered="true" expected="-1919_-1919_73"/>
        <stop lane="-167583#4_1" duration="1.0"/>
    </vehicle>
    <person id="-1919_-1919_73" type="pedestrian" depart="76633.59">
        <ride from="-167583#4" to="--167390#1" arrivalPos="47.349999999999994" lines="-1919_-1919_73_tr"/>
        <walk edges="--167390#1 --169480#4 --169359#1 -165799#1 --169125 -167083#0 -167593#2 -167593#1 --169270" arrivalPos="71.195"/>
        <stop lane="--169270_0" duration="2399.0208894160196" actType="P-Groceries"/>
        <walk edges="--169270 -165437#3 -165437#4 -165437#5 -165437#6 --165799#2 --169359#1 --169480#4 --167390#1" arrivalPos="47.349999999999994"/>
        <ride from="--167390#1" to="-167583#4" arrivalPos="94.06239400076879" lines="-1919_-1919_73_tr"/>
        <stop lane="-167583#4_0" duration="1.0" actType="Home"/>
    </person>
    <vehicle id="-1891_-1891_3_tr" type="motorcycle" depart="triggered">
        <route edges="--167881#7 --167881#6 --167881#5 --167881#4 --167881#3 --167881#2 --167881#1 --167881#0 -167881#0 -167881#1 -167881#2 -167881#3 -167881#4 -167881#5 -167881#6 -167881#7 -167881#8 -168230#2 -168230#3 -165346 -168397#0 -168397#1 -168397#2 -168397#5 -167396#0 -167396#1 -167396#2 -168359#1 -168445#0 --166026 --166262 --167389 --167679#1 --167679#0 -167345#1 -167345#2 -167345#3 -166279#0 -166279#1 -166279#2 -166736#0 -166736#1 -165728#0 -165728#1 -165728#2 -165728#3 -165728#4 -165361#0 -165361#1 -165361#2 -168587#0 -168587#1 --167881#8 --167881#7"/>