<?xml version="1.0" encoding="UTF-8"?>

<!-- generated on 2025-08-27 10:50:01 by Eclipse SUMO polyconvert Version c915cd253
<polyconvertConfiguration xmlns:xsi="http://www.w3.org/2001/XMLSchema-instance" xsi:noNamespaceSchemaLocation="http://sumo.dlr.de/xsd/polyconvertConfiguration.xsd">

    <input>
        <net-file value="osm.net.xml"/>
        <osm-files value="H2ST9_cp.osm"/>
    </input>

    <output>
        <output-file value="osm_polygons.add.xml"/>
    </output>

</polyconvertConfiguration>
-->

<additional xmlns:xsi="http://www.w3.org/2001/XMLSchema-instance" xsi:noNamespaceSchemaLocation="http://sumo.dlr.de/xsd/additional_file.xsd">
    <location netOffset="-603538.31,-3722684.92" convBoundary="-36.30,-6.11,4120.99,4238.22" origBoundary="-7.883748,33.638815,-7.838965,33.677038" projParameter="+proj=utm +zone=29 +ellps=WGS84 +datum=WGS84 +units=m +no_defs"/>

    <poly id="-165189" type="building" color="255,230,230" fill="1" layer="-1.00" shape="1329.280454,3984.151750 1333.687915,3973.677294 1372.580984,3989.898384 1368.173609,4000.361750 1329.280454,3984.151750"/>
    <poly id="-165190" type="amenity" color="237,199,199" fill="1" layer="-1.00" shape="1746.553786,3154.653905 1830.691731,3170.709481 1905.251741,3181.642707 1876.356970,3061.299183 1861.615198,3065.368238 1859.005178,3057.342252 1871.377337,3050.367220 1865.682428,3037.865596 1847.803360,3051.492454 1792.685616,3104.773752 1746.553786,3154.653905"/>
    <poly id="-165193" type="school" color="237,199,199" fill="1" layer="-2.00" shape="760.329440,2272.777116 856.447455,2308.482054 900.514664,2190.133485 827.214954,2160.613609 803.252609,2168.272388 760.329440,2272.777116"/>
    <poly id="-165196" type="building" color="255,230,230" fill="1" layer="-1.00" shape="1111.526139,2165.862788 1128.436080,2172.239223 1132.111989,2162.565268 1115.201912,2156.199904 1111.526139,2165.862788"/>
    <poly id="-165198" type="building" color="255,230,230" fill="1" layer="-1.00" shape="2888.592612,674.033913 2884.153739,680.375824 2916.193118,702.585540 2920.641277,696.243749 2888.592612,674.033913"/>
    <poly id="-165200" type="building" color="255,230,230" fill="1" layer="-1.00" shape="3730.871220,2955.842426 3713.266694,2963.731283 3707.086813,2950.026779 3724.727701,2942.204776 3730.871220,2955.842426"/>
    <poly id="-165202" type="building" color="255,230,230" fill="1" layer="-1.00" shape="1641.857586,1950.016006 1681.099253,1945.340449 1675.947261,1897.654810 1635.088540,1901.780978 1641.857586,1950.016006"/>
    <poly id="-165206" type="building" color="255,230,230" fill="1" layer="-1.00" shape="1393.694368,2804.629927 1429.492617,2804.146988 1429.669659,2816.765096 1393.862185,2817.247932 1393.694368,2804.629927"/>
    <poly id="-165208" type="building" color="255,230,230" fill="1" layer="-1.00" shape="1727.707946,3597.198747 1744.226479,3606.020001 1739.219558,3615.302506 1738.638900,3614.985982 1736.035968,3619.819984 1746.618210,3625.463493 1738.705249,3640.163721 1723.458729,3632.032124 1730.813127,3618.378014 1719.539567,3612.361403 1727.707946,3597.198747"/>
    <poly id="-165210" type="building" color="255,230,230" fill="1" layer="-1.00" shape="872.734747,3983.417268 879.104598,3970.637942 896.967789,3979.439164 890.607068,3992.229657 872.734747,3983.417268"/>
    <poly id="-165213" type="parking" color="184,184,179" fill="1" layer="-1.00" shape="3514.121782,1092.180280 3517.567144,1095.929416 3535.334238,1086.225342 3535.667617,1078.796663 3532.681583,1078.763314 3535.404055,1035.960484 3528.936762,1035.389811 3526.713224,1079.195109 3511.906312,1090.416515 3514.121782,1092.180280"/>
    <poly id="-165214" type="building" color="255,230,230" fill="1" layer="-1.00" shape="3354.658679,1836.755225 3366.574137,1859.329308 3356.882184,1864.393985 3344.567236,1841.051173 3346.694122,1839.934001 3344.051355,1834.920062 3368.174119,1822.307006 3369.699810,1825.203939 3377.544824,1821.104490 3379.279583,1824.380362 3391.294322,1818.101041 3382.430249,1801.320797 3392.318240,1796.147566 3403.307130,1816.983407 3398.269858,1819.618822 3401.230719,1825.212308 3380.876678,1835.840305 3379.759614,1833.723289 3372.595467,1837.475880 3368.417751,1829.564896 3354.658679,1836.755225"/>
    <poly id="-165223" type="building" color="255,230,230" fill="1" layer="-1.00" shape="2741.500499,2804.432013 2768.598449,2794.996302 2738.943542,2710.584974 2711.836241,2720.009593 2741.500499,2804.432013"/>
    <poly id="-165226" type="building" color="255,230,230" fill="1" layer="-1.00" shape="2530.592646,2761.443900 2517.313943,2728.765010 2545.266551,2717.510494 2558.554572,2750.178452 2530.592646,2761.443900"/>
    <poly id="-165231" type="building" color="255,230,230" fill="1" layer="-1.00" shape="487.438542,3126.655212 502.329361,3133.551419 508.107236,3136.006689 514.018164,3139.017233 518.981239,3141.363975 545.597140,3152.940049 544.545679,3175.469304 532.377161,3174.905130 532.957290,3162.472520 527.060113,3159.905173 517.523258,3155.226992 492.229164,3144.030872 487.827228,3154.051610 476.918676,3149.314272 479.618948,3143.151827 479.572123,3144.048516 487.438542,3126.655212"/>
    <poly id="-165234" type="parking" color="184,184,179" fill="1" layer="-1.00" shape="767.371137,2906.500883 822.447033,2803.881084 858.637165,2822.597576 793.947386,2917.699417 767.371137,2906.500883"/>
    <poly id="-165242" type="building" color="255,230,230" fill="1" layer="-1.00" shape="1627.491364,3285.101716 1636.016566,3283.899351 1634.277404,3271.707132 1625.752070,3272.920575 1627.491364,3285.101716"/>
    <poly id="-165243" type="building" color="255,230,230" fill="1" layer="-1.00" shape="1155.890702,1332.042734 1164.253658,1335.656395 1168.885904,1325.062475 1160.522939,1321.448807 1155.890702,1332.042734"/>
    <poly id="-165244" type="building" color="255,230,230" fill="1" layer="-1.00" shape="4016.573500,1357.774377 4006.422308,1349.962238 3998.048832,1358.120388 4008.178245,1366.220263 4016.573500,1357.774377"/>
    <poly id="-165245" type="building" color="255,230,230" fill="1" layer="-1.00" shape="1074.882796,2315.759886 1078.460870,2302.296679 1116.917562,2312.441753 1113.330286,2325.893770 1074.882796,2315.759886"/>
    <poly id="-165246" type="building" color="255,230,230" fill="1" layer="-1.00" shape="1151.036611,2864.735126 1154.001376,2855.629389 1151.072316,2854.678036 1154.977530,2842.669449 1159.274316,2844.045584 1158.171047,2847.422944 1165.175098,2849.681554 1163.342616,2855.299479 1165.375474,2855.953055 1164.204882,2859.551207 1167.586675,2860.651509 1164.804353,2869.183257 1151.036611,2864.735126"/>
    <poly id="-165248" type="building" color="255,230,230" fill="1" layer="-1.00" shape="1341.448568,2936.200895 1348.849323,2936.093608 1348.648072,2922.290051 1341.247306,2922.397336 1341.448568,2936.200895"/>
    <poly id="-165249" type="building" color="255,230,230" fill="1" layer="-1.00" shape="1156.301756,2625.573058 1153.023486,2637.056819 1130.633650,2630.720138 1131.096361,2629.108022 1120.012330,2625.974139 1120.475039,2624.362023 1106.858134,2620.502672 1109.220329,2612.232158 1156.301756,2625.573058"/>
    <poly id="-165250" type="building" color="255,230,230" fill="1" layer="-1.00" shape="1457.167336,2430.506543 1445.381707,2432.149662 1443.747296,2420.512478 1450.174109,2419.619230 1449.864219,2417.433760 1455.223050,2416.683885 1457.167336,2430.506543"/>
    <poly id="-165253" type="building" color="255,230,230" fill="1" layer="-1.00" shape="3820.061360,1007.356248 3831.943874,1008.032065 3831.054062,988.106362 3821.100629,988.260739 3820.061360,1007.356248"/>
    <poly id="-165254" type="building" color="255,230,230" fill="1" layer="-1.00" shape="1278.045155,1740.483560 1291.478204,1740.065562 1291.191466,1730.669544 1277.749252,1731.076365 1278.045155,1740.483560"/>
    <poly id="-165255" type="building" color="255,230,230" fill="1" layer="-1.00" shape="621.019608,2920.034486 635.525596,2927.380843 635.629751,2927.182600 642.776656,2930.804789 641.564008,2933.173051 719.248606,2972.508914 711.237280,2989.534942 698.986556,2985.425186 701.760463,2979.330057 681.297262,2968.972442 682.102688,2967.386185 677.528599,2965.076827 675.398408,2971.666327 664.426880,2965.886902 666.703357,2960.340181 630.544489,2942.036280 631.406862,2940.328796 625.643104,2937.419474 621.038653,2946.429993 610.313664,2940.996685 621.019608,2920.034486"/>
    <poly id="-165260" type="building" color="255,230,230" fill="1" layer="-1.00" shape="2791.686000,259.356320 2742.776266,331.021063 2635.435281,263.689163 2675.327621,190.908130 2791.686000,259.356320"/>
    <poly id="-165262" type="residential" color="235,235,227" fill="1" layer="-3.00" shape="3243.564492,2619.385689 3272.726466,2603.738240 3285.480068,2596.802459 3310.726109,2583.072027 3316.379976,2579.989316 3354.960287,2636.134954 3276.723785,2678.549893 3252.668046,2635.426376 3243.564492,2619.385689"/>
    <poly id="-165274" type="building" color="255,230,230" fill="1" layer="-1.00" shape="3404.229765,2891.867719 3391.451194,2876.971050 3414.278631,2855.571052 3429.833990,2874.242647 3423.416264,2880.141297 3421.097861,2876.836737 3404.229765,2891.867719"/>
    <poly id="-165275" type="school" color="237,199,199" fill="1" layer="-2.00" shape="1659.299870,2494.198140 1667.282075,2497.752729 1673.688738,2483.490029 1665.706523,2479.935436 1659.299870,2494.198140"/>
    <poly id="-165275#1" type="building" color="255,230,230" fill="1" layer="-1.00" shape="1659.299870,2494.198140 1667.282075,2497.752729 1673.688738,2483.490029 1665.706523,2479.935436 1659.299870,2494.198140"/>
    <poly id="-165276" type="amenity" color="237,199,199" fill="1" layer="-1.00" shape="596.431656,3490.439731 603.980169,3494.609023 609.370352,3484.942450 613.266466,3477.951228 605.727094,3473.793105 601.755492,3480.905351 596.431656,3490.439731"/>
    <poly id="-165276#1" type="building" color="255,230,230" fill="1" layer="-1.00" shape="596.431656,3490.439731 603.980169,3494.609023 609.370352,3484.942450 613.266466,3477.951228 605.727094,3473.793105 601.755492,3480.905351 596.431656,3490.439731"/>
    <poly id="-165281" type="building" color="255,230,230" fill="1" layer="-1.00" shape="2004.685338,272.963539 2004.919274,273.619630 1997.815562,276.044744 1996.557403,272.375648 1986.130030,275.927228 1987.271528,279.240593 1984.441224,280.206337 1981.488016,279.697550 1980.355425,276.417515 1983.679208,275.279976 1980.120103,264.928574 1980.358037,263.535551 1980.950608,263.630684 1988.901441,260.926886 1987.382491,256.512794 1984.496414,257.489001 1983.354912,254.175638 1987.348880,252.823943 1991.459416,253.522691 1991.845726,251.289485 1997.776401,249.261287 1998.908746,252.563474 2002.334212,253.143920 2000.734238,248.507404 2017.595086,242.755961 2023.742462,260.645750 2008.138648,265.956880 2009.936309,271.171552 2004.685338,272.963539"/>
    <poly id="-165285" type="building" color="255,230,230" fill="1" layer="-1.00" shape="1039.835780,2779.150936 1048.682008,2738.375148 1065.593008,2742.015623 1063.327954,2752.436048 1062.375022,2752.237346 1060.471042,2761.011316 1057.140722,2760.288215 1051.790114,2784.941516 1046.313486,2783.763010 1046.977689,2780.679910 1039.835780,2779.150936"/>
    <poly id="-165286" type="building" color="255,230,230" fill="1" layer="-1.00" shape="1094.525432,2743.605318 1096.940595,2744.916568 1094.423642,2749.530144 1091.335514,2747.857098 1089.651407,2750.929056 1080.672750,2746.068115 1087.078378,2734.352644 1096.730009,2739.575388 1094.525432,2743.605318"/>
    <poly id="-165287" type="amenity" color="237,199,199" fill="1" layer="-1.00" shape="873.132181,566.198973 892.983469,559.115751 883.197329,531.960417 863.345873,539.054736 873.132181,566.198973"/>
    <poly id="-165287#1" type="building" color="255,230,230" fill="1" layer="-1.00" shape="873.132181,566.198973 892.983469,559.115751 883.197329,531.960417 863.345873,539.054736 873.132181,566.198973"/>
    <poly id="-165287#2" type="tourism" color="207,245,201" fill="1" layer="-2.00" shape="873.132181,566.198973 892.983469,559.115751 883.197329,531.960417 863.345873,539.054736 873.132181,566.198973"/>
    <poly id="-165288" type="building" color="255,230,230" fill="1" layer="-1.00" shape="1609.017913,666.629269 1611.962193,656.947457 1632.761944,663.212270 1629.817522,672.905152 1609.017913,666.629269"/>
    <poly id="-165290" type="landuse" color="194,194,130" fill="1" layer="-3.00" shape="1857.862317,1303.636330 1859.681538,1302.659443 1861.574692,1306.767497 1862.975497,1310.105855 1863.748876,1312.307513 1864.496402,1315.173477 1864.919124,1318.058023 1864.743965,1320.492932 1864.650577,1323.925630 1865.053151,1326.112133 1865.505135,1328.022265 1866.173463,1330.499681 1867.042980,1332.392251 1868.260108,1333.878812 1870.023983,1335.404614 1872.028714,1336.955220 1874.146915,1338.307694 1875.983007,1339.169700 1878.197591,1340.190942 1880.702564,1340.949539 1882.763645,1341.592490 1884.847048,1341.892313 1886.016328,1342.669453 1887.097782,1344.686198 1887.664082,1346.320676 1887.946587,1348.461554 1887.411615,1351.568175 1886.590013,1353.752293 1884.789239,1355.582272 1883.539460,1356.222041 1882.068953,1356.693238 1880.470572,1356.985803 1878.977605,1356.969385 1877.644960,1356.711045 1876.511190,1356.078294 1874.560031,1354.716577 1873.249690,1353.273299 1872.673627,1351.683020 1871.320762,1347.359372 1870.380473,1345.155881 1869.233495,1343.193801 1866.806062,1339.600465 1863.625679,1336.165004 1860.368083,1333.847421 1858.155688,1332.626832 1855.728671,1331.525724 1853.453939,1330.913662 1850.384539,1330.879918 1847.924486,1331.096556 1844.912693,1331.728040 1843.032585,1332.338734 1840.855860,1332.935093 1838.393860,1333.328936 1835.999328,1333.490916 1833.912635,1333.490133 1831.966743,1333.335827 1830.104675,1333.149209 1828.345462,1332.886190 1827.069547,1332.528795 1825.571929,1332.091425 1824.029527,1331.509572 1821.877778,1330.677336 1819.893554,1329.791560 1818.188496,1328.820238 1816.652544,1327.651399 1857.862317,1303.636330"/>
    <poly id="-165292" type="building" color="255,230,230" fill="1" layer="-1.00" shape="2316.027239,2277.949435 2300.336000,2229.316176 2330.215113,2217.539520 2336.385881,2230.611574 2377.101347,2216.706243 2389.319255,2253.183487 2316.027239,2277.949435"/>
    <poly id="-165297" type="building" color="255,230,230" fill="1" layer="-1.00" shape="2659.182677,445.794537 2684.408002,407.549686 2696.857898,415.684871 2682.584755,437.336488 2671.632541,453.929692 2659.182677,445.794537"/>
    <poly id="-165299" type="building" color="255,230,230" fill="1" layer="-1.00" shape="2774.547235,698.388849 2793.995712,663.347816 2806.560824,670.254940 2788.598133,702.620822 2782.080527,699.037281 2780.594708,701.712409 2774.547235,698.388849"/>
    <poly id="-165301" type="building" color="255,230,230" fill="1" layer="-1.00" shape="459.862399,1632.159987 463.575279,1633.562677 462.430941,1636.463371 473.076191,1640.843325 479.214435,1625.557935 468.373841,1621.231241 466.505322,1621.642949 464.749899,1622.742629 459.862399,1632.159987"/>
    <poly id="-165309" type="building" color="255,230,230" fill="1" layer="-1.00" shape="2584.861408,3055.784654 2574.947528,3041.685123 2621.315945,3009.401027 2630.492248,3023.115829 2584.861408,3055.784654"/>
    <poly id="-165311" type="building" color="255,230,230" fill="1" layer="-1.00" shape="1657.447848,3604.490631 1638.349433,3594.179101 1658.505029,3557.194289 1677.603377,3567.516935 1657.447848,3604.490631"/>
    <poly id="-165312" type="building" color="255,230,230" fill="1" layer="-1.00" shape="2619.543706,938.960041 2607.068113,944.094355 2583.290825,886.853354 2595.757203,881.718903 2619.543706,938.960041"/>
    <poly id="-165316" type="building" color="255,230,230" fill="1" layer="-1.00" shape="3398.884446,1094.452058 3416.541952,1095.391160 3418.481431,1077.834245 3400.084738,1076.643214 3398.884446,1094.452058"/>
    <poly id="-165318" type="building" color="255,230,230" fill="1" layer="-1.00" shape="1069.306137,1835.189057 1083.852910,1841.473138 1087.952282,1832.091780 1073.405497,1825.807696 1069.306137,1835.189057"/>
    <poly id="-165319" type="university" color="237,199,199" fill="1" layer="-2.00" shape="2416.210731,2588.779533 2397.222077,2543.255348 2451.855903,2523.423214 2466.286482,2571.057022 2416.210731,2588.779533"/>
    <poly id="-165320" type="building" color="255,230,230" fill="1" layer="-1.00" shape="2078.064446,186.831773 2065.160015,192.947899 2059.629326,181.389568 2072.533768,175.273432 2078.064446,186.831773"/>
    <poly id="-165321" type="building" color="255,230,230" fill="1" layer="-1.00" shape="2143.137220,143.342225 2149.304346,152.692315 2153.031993,150.263329 2158.423732,158.430767 2144.858171,167.297559 2133.636952,150.282211 2136.336861,148.528638 2132.076437,142.068388 2133.804746,140.946549 2137.718483,146.882383 2143.137220,143.342225"/>
    <poly id="-165322" type="leisure" color="207,245,201" fill="1" layer="-2.00" shape="2252.107110,3337.758330 2267.129363,3329.262351 2250.509985,3300.180034 2235.496974,3308.676143 2252.107110,3337.758330"/>
    <poly id="-165322#1" type="sport" color="79,230,125" fill="1" layer="-2.00" shape="2252.107110,3337.758330 2267.129363,3329.262351 2250.509985,3300.180034 2235.496974,3308.676143 2252.107110,3337.758330"/>
    <poly id="-165325" type="parking" color="184,184,179" fill="1" layer="-1.00" shape="3361.008019,922.198549 3383.883133,922.697308 3387.780362,841.028788 3364.401560,840.768096 3361.008019,922.198549"/>
    <poly id="-165326" type="building" color="255,230,230" fill="1" layer="-1.00" shape="1139.970605,2260.678231 1159.033837,2268.562500 1167.699380,2247.800099 1148.626719,2239.926787 1139.970605,2260.678231"/>
    <poly id="-165330" type="building" color="255,230,230" fill="1" layer="-1.00" shape="1587.268495,2769.556774 1614.644057,2781.188460 1609.590981,2792.962753 1582.215326,2781.342154 1587.268495,2769.556774"/>
    <poly id="-165332" type="building" color="255,230,230" fill="1" layer="-1.00" shape="1313.353528,2443.752294 1315.877315,2431.750804 1327.719945,2434.217540 1325.392007,2445.268589 1321.099000,2444.379795 1320.248100,2448.413415 1323.921092,2449.184656 1322.346250,2456.666230 1314.852040,2455.111050 1314.656178,2456.061487 1317.755636,2456.704611 1317.481720,2458.008643 1320.682927,2458.675034 1313.835395,2491.242618 1300.605066,2488.483802 1302.502825,2479.455048 1304.029432,2479.770814 1311.678927,2443.401674 1313.353528,2443.752294"/>
    <poly id="-165335" type="building" color="255,230,230" fill="1" layer="-1.00" shape="2243.996334,419.285073 2230.942216,428.057689 2222.463359,415.569532 2235.517485,406.796906 2243.996334,419.285073"/>
    <poly id="-165339" type="building" color="255,230,230" fill="1" layer="-1.00" shape="1319.237269,2719.588898 1327.014450,2723.229573 1325.960681,2725.466576 1332.713782,2728.630835 1326.657200,2741.468702 1325.836137,2741.083114 1322.181313,2748.829916 1316.858069,2746.345902 1315.700012,2748.792217 1309.555825,2745.911548 1311.197888,2742.451485 1308.946856,2741.396735 1319.237269,2719.588898"/>
    <poly id="-165343" type="building" color="255,230,230" fill="1" layer="-1.00" shape="1063.805286,350.313995 1071.096472,354.480754 1075.955875,346.049175 1068.664564,341.893489 1063.805286,350.313995"/>
    <poly id="-165347" type="building" color="255,230,230" fill="1" layer="-1.00" shape="1507.416361,3919.079621 1522.239743,3926.032134 1516.497410,3938.153354 1512.411072,3936.236596 1511.158202,3938.881226 1500.421175,3933.845481 1507.416361,3919.079621"/>
    <poly id="-165349" type="building" color="255,230,230" fill="1" layer="-1.00" shape="2253.729085,328.199345 2255.422863,334.409814 2237.393859,339.272911 2233.855095,326.263259 2256.507520,320.166282 2258.352604,326.954399 2253.729085,328.199345"/>
    <poly id="-165350" type="building" color="255,230,230" fill="1" layer="-1.00" shape="562.437597,3729.566489 567.071178,3732.341669 570.942247,3725.937214 566.308664,3723.162031 562.437597,3729.566489"/>
    <poly id="-165351" type="landuse" color="194,194,130" fill="1" layer="-3.00" shape="2769.235292,2722.551414 2785.925778,2717.608142 2744.151024,2606.434228 2729.789765,2612.045849 2769.235292,2722.551414"/>
    <poly id="-165353" type="building" color="255,230,230" fill="1" layer="-1.00" shape="2261.803446,333.638391 2264.878682,323.924969 2287.506137,331.019941 2285.257171,338.139490 2279.202934,336.233976 2278.385796,338.839022 2261.803446,333.638391"/>
    <poly id="-165355" type="building" color="255,230,230" fill="1" layer="-1.00" shape="1442.238280,3131.210542 1440.897856,3152.839406 1432.168988,3152.311780 1433.500243,3130.671737 1442.238280,3131.210542"/>
    <poly id="-165357" type="landuse" color="194,194,130" fill="1" layer="-3.00" shape="1923.923507,1340.671721 1941.330255,1360.989292 1937.240641,1365.175529 1920.568930,1353.915580 1918.720458,1356.708682 1936.006005,1366.967420 1934.153022,1370.170303 1933.115693,1372.573575 1932.474791,1375.191662 1925.658449,1373.488419 1910.452511,1363.031046 1906.317316,1355.342752 1923.923507,1340.671721"/>
    <poly id="-165358" type="building" color="255,230,230" fill="1" layer="-1.00" shape="3656.684117,2981.994789 3666.179793,2977.814379 3668.694456,2983.458365 3670.810835,2988.233920 3664.474084,2991.031863 3667.893097,2998.724069 3664.743454,3000.106634 3661.360534,2992.503447 3656.684117,2981.994789"/>
    <poly id="-165365" type="building" color="255,230,230" fill="1" layer="-1.00" shape="2308.508466,384.507712 2298.070773,384.791265 2297.575803,366.609209 2301.296288,366.506276 2301.204711,363.038312 2307.912545,362.868662 2308.508466,384.507712"/>
    <poly id="-165369" type="school" color="237,199,199" fill="1" layer="-2.00" shape="808.455080,3243.713666 744.390550,3211.525576 672.908397,3341.229004 735.838162,3374.534095 808.455080,3243.713666"/>
    <poly id="-165373" type="building" color="255,230,230" fill="1" layer="-1.00" shape="1044.741382,1886.914098 1051.549358,1890.211648 1055.457393,1882.212751 1048.649412,1878.915198 1044.741382,1886.914098"/>
    <poly id="-165374" type="building" color="255,230,230" fill="1" layer="-1.00" shape="1457.638793,990.542203 1471.868277,985.248403 1476.440391,999.664714 1462.705206,1004.709161 1457.638793,990.542203"/>
    <poly id="-165375" type="amenity" color="237,199,199" fill="1" layer="-1.00" shape="2054.701399,1864.137644 2067.423770,1865.928217 2080.007045,1868.559093 2092.728544,1872.110862 2105.258235,1876.236516 2122.407848,1881.897370 2121.832299,1886.997315 2120.497986,1891.944899 2118.433828,1896.640753 2115.678013,1900.985612 2112.306067,1904.858464 2108.392903,1908.193678 2104.013676,1910.903466 2099.280269,1912.933688 2094.304561,1914.230186 2092.097568,1915.058758 2090.108355,1916.321715 2088.430261,1917.964704 2087.128923,1919.921987 2086.260955,1922.105577 2080.208640,1963.875001 2090.538894,1974.024196 2146.137523,1984.661387 2151.487748,1984.720385 2160.338075,1996.193602 2083.029228,1984.785373 2073.753381,1967.315131 2071.309479,1962.713587 2068.111577,1956.685939 2058.608619,1938.781224 2064.706959,1902.927175 2078.759809,1891.695331 2075.976342,1886.768826 2072.557578,1882.267307 2068.567691,1878.257941 2064.070736,1874.818970 2059.149555,1872.006691 2053.896145,1869.888576 2054.701399,1864.137644"/>
    <poly id="-165378" type="building" color="255,230,230" fill="1" layer="-1.00" shape="3039.519124,484.152112 3062.145190,496.299845 3065.772908,493.692875 3070.301176,496.013914 3072.429803,492.260471 3068.089884,490.517506 3076.418020,474.748450 3053.629461,460.527558 3039.519124,484.152112"/>
    <poly id="-165381" type="building" color="255,230,230" fill="1" layer="-1.00" shape="2801.986223,916.303246 2811.749593,919.069912 2816.107692,905.782073 2806.422429,902.661815 2801.986223,916.303246"/>
    <poly id="-165383" type="building" color="255,230,230" fill="1" layer="-1.00" shape="1698.318737,1977.584981 1697.041838,1964.655729 1742.522562,1961.012584 1744.843120,1960.816545 1745.897172,1973.765515 1742.583975,1973.994956 1726.461123,1975.324275 1730.574277,2018.778382 1766.014917,2015.667532 1764.590341,1997.619279 1743.499188,1998.738909 1742.529520,1988.238781 1778.514434,1985.399783 1782.498407,2016.114489 1799.014396,2013.604400 1796.570389,1990.438656 1798.329035,1978.085493 1800.847163,1970.038375 1857.515302,1978.736163 1862.755517,1993.857882 1828.541108,2033.035993 1815.137194,2022.399161 1815.441644,2019.168159 1811.954434,2017.512652 1809.737326,2021.797054 1798.112992,2022.212038 1797.514751,2025.173975 1718.788970,2032.162316 1713.995649,1976.328257 1698.318737,1977.584981"/>
    <poly id="-165388" type="building" color="255,230,230" fill="1" layer="-1.00" shape="643.752883,1909.573704 648.721797,1884.140718 658.216528,1885.982940 656.635154,1894.106969 655.672737,1893.919284 652.285173,1911.228235 643.752883,1909.573704"/>
    <poly id="-165389" type="building" color="255,230,230" fill="1" layer="-1.00" shape="36.475336,1605.356377 43.041610,1607.897380 46.541671,1598.963271 39.975391,1596.422264 36.475336,1605.356377"/>
    <poly id="-165393" type="building" color="255,230,230" fill="1" layer="-1.00" shape="1172.038886,1388.764643 1177.344149,1374.290223 1218.118676,1389.079784 1212.822511,1403.565359 1172.038886,1388.764643"/>
    <poly id="-165394" type="amenity" color="237,199,199" fill="1" layer="-1.00" shape="1793.711325,3601.801096 1804.849352,3609.178722 1814.709943,3594.444579 1803.572027,3587.055864 1793.711325,3601.801096"/>
    <poly id="-165394#1" type="building" color="255,230,230" fill="1" layer="-1.00" shape="1793.711325,3601.801096 1804.849352,3609.178722 1814.709943,3594.444579 1803.572027,3587.055864 1793.711325,3601.801096"/>
    <poly id="-165398" type="building" color="255,230,230" fill="1" layer="-1.00" shape="1926.571762,298.023220 1932.674094,296.406702 1931.569659,292.251936 1941.904512,289.518942 1945.361313,302.427878 1937.947435,304.384412 1939.648867,310.761047 1930.616310,313.153919 1926.571762,298.023220"/>
    <poly id="-165401" type="building" color="255,230,230" fill="1" layer="-1.00" shape="2505.229352,3033.912812 2483.051253,2992.672951 2552.605956,2957.455067 2569.843005,2990.188943 2505.229352,3033.912812"/>
    <poly id="-165402" type="building" color="255,230,230" fill="1" layer="-1.00" shape="2512.579580,902.874090 2519.717244,878.905848 2520.410556,879.112896 2524.080633,866.780986 2535.543845,870.164306 2534.050691,875.187618 2537.489676,876.200400 2534.773200,885.330658 2532.480464,884.662851 2525.882305,906.809420 2512.579580,902.874090"/>
    <poly id="-165403" type="building" color="255,230,230" fill="1" layer="-1.00" shape="894.332365,2733.579142 906.240263,2738.538294 903.422676,2745.219947 905.970323,2746.288909 904.018676,2750.941920 902.320165,2750.236665 899.112183,2757.855567 885.505915,2752.180096 887.105205,2748.376128 887.963732,2748.728858 894.332365,2733.579142"/>
    <poly id="-165411" type="building" color="255,230,230" fill="1" layer="-1.00" shape="1156.833224,3394.101284 1163.407324,3397.485017 1166.579960,3391.405450 1160.005978,3388.010641 1156.833224,3394.101284"/>
    <poly id="-165418" type="building" color="255,230,230" fill="1" layer="-1.00" shape="3142.757496,1510.470651 3113.193174,1464.483995 3028.543705,1522.425683 3060.110863,1566.795011 3142.757496,1510.470651"/>
    <poly id="-165419" type="building" color="255,230,230" fill="1" layer="-1.00" shape="1308.986625,2247.893782 1287.439143,2245.010778 1289.548213,2229.382728 1311.095730,2232.265736 1308.986625,2247.893782"/>
    <poly id="-165420" type="building" color="255,230,230" fill="1" layer="-1.00" shape="1874.667291,1290.983405 1889.095329,1284.485070 1915.472448,1342.561451 1901.044598,1349.048668 1874.667291,1290.983405"/>
    <poly id="-165421" type="building" color="255,230,230" fill="1" layer="-1.00" shape="3763.371830,2724.029122 3773.382251,2718.625067 3770.821182,2713.811282 3775.821763,2711.109204 3769.206573,2699.005902 3756.303884,2705.983687 3755.392648,2709.518002 3763.371830,2724.029122"/>
    <poly id="-165425" type="building" color="255,230,230" fill="1" layer="-1.00" shape="1024.074115,2847.786232 1027.097039,2829.941725 1041.748903,2832.405552 1040.252422,2841.228278 1041.464951,2841.429813 1039.938480,2850.451589 1024.074115,2847.786232"/>
    <poly id="-165426" type="building" color="255,230,230" fill="1" layer="-1.00" shape="3366.560281,820.178640 3367.891665,790.607926 3356.583701,789.119432 3355.748572,819.936255 3366.560281,820.178640"/>
    <poly id="-165430" type="building" color="255,230,230" fill="1" layer="-1.00" shape="165.889626,1387.020759 171.456572,1389.362735 175.062948,1380.906105 169.486844,1378.552954 165.889626,1387.020759"/>
    <poly id="-165432" type="building" color="255,230,230" fill="1" layer="-1.00" shape="929.705220,3702.373533 934.700973,3692.337307 993.401079,3721.256087 988.405277,3731.292288 929.705220,3702.373533"/>
    <poly id="-165434" type="building" color="255,230,230" fill="1" layer="-1.00" shape="2293.292057,2434.697517 2260.800832,2374.879766 2289.858357,2359.361130 2320.695485,2419.481934 2293.292057,2434.697517"/>
    <poly id="-165435" type="building" color="255,230,230" fill="1" layer="-1.00" shape="277.897658,1368.605625 283.781793,1370.773879 287.583776,1360.536095 281.699636,1358.367840 277.897658,1368.605625"/>
    <poly id="-165438" type="leisure" color="207,245,201" fill="1" layer="-2.00" shape="3384.445826,2139.367935 3504.947674,2076.945047 3446.768326,1960.356599 3318.699440,2028.488940 3351.568193,2083.928322 3384.445826,2139.367935"/>
    <poly id="-165439" type="parking" color="184,184,179" fill="1" layer="-1.00" shape="1380.042261,3866.871765 1390.376915,3872.578960 1432.829522,3793.749087 1423.337725,3788.051039 1380.042261,3866.871765"/>
    <poly id="-165440" type="building" color="255,230,230" fill="1" layer="-1.00" shape="2843.575914,886.027149 2904.787213,903.731194 2900.824431,917.322453 2839.613214,899.618430 2843.575914,886.027149"/>